data_1
_audit_creation_method   'Generated by vasp2cif'
_cell_length_a    4.75327205649
_cell_length_b    4.96701249034
_cell_length_c    5.10069400556
_cell_angle_alpha    73.7278505823
_cell_angle_beta    94.1794172842
_cell_angle_gamma    100.125980698
_symmetry_space_group_name_H-M    'P 1'
loop_
_atom_site_label
_atom_site_type_symbol
_atom_site_fract_x
_atom_site_fract_y
_atom_site_fract_z
_atom_site_occupancy
C1   C   0.435195692510888   0.534370983750122   0.305696435573346   1.0
C2   C   0.647894366015088   0.362100158115545   0.257622047333925   1.0
H3   H   0.845913598953331   0.495243994906119   0.178233986481828   1.0
H4   H   0.558033375769234   0.243751476420059   0.113705040885684   1.0
H5   H   0.561672254153997   0.505621014519448   0.709897009921413   1.0
H6   H   0.412926322972105   0.792914336975223   0.567703791702257   1.0
H7   H   0.698351201948100   0.211423055906010   0.446580806670781   1.0
H8   H   0.407496530408615   0.707870210854914   0.127775790921035   1.0
H9   H   0.229951357258685   0.406143359852699   0.365393382783097   1.0
H10   H   0.748432171767995   0.778841336602888   0.487011638684649   1.0
N14   N   0.546561426093874   0.664664371554991   0.533988682744244   1.0
