data_1
_audit_creation_method   'Generated by vasp2cif'
_cell_length_a    4.27142996019
_cell_length_b    3.7589415834
_cell_length_c    7.49001455369
_cell_angle_alpha    93.8057338014
_cell_angle_beta    97.6764935709
_cell_angle_gamma    95.9633120463
_symmetry_space_group_name_H-M    'P 1'
loop_
_atom_site_label
_atom_site_type_symbol
_atom_site_fract_x
_atom_site_fract_y
_atom_site_fract_z
_atom_site_occupancy
C1   C   0.631173725684619   0.731502318314732   0.425306529124441   1.0
C2   C   0.477922386010135   0.530290731160399   0.566017565410078   1.0
H3   H   0.621292670672517   0.335486096590678   0.626775426769605   1.0
H4   H   0.446665823817455   0.728894982988685   0.672290511807930   1.0
H5   H   0.827968194885223   0.351515393246863   0.255185770734791   1.0
H6   H   0.652903604730717   0.669465236393542   0.149670470123098   1.0
H7   H   0.485676530274063   0.938927647755690   0.385065977774090   1.0
H8   H   0.243631629520820   0.394386499567546   0.510026900979504   1.0
H9   H   0.872117900126327   0.851182912678368   0.475410955651739   1.0
H10   H   0.431714962973466   0.331781915342489   0.218493853161306   1.0
N14   N   0.640186991556490   0.504575138672259   0.253307726380832   1.0
