data_1
_audit_creation_method   'Generated by vasp2cif'
_cell_length_a    4.67795629958
_cell_length_b    3.64099826929
_cell_length_c    7.93998005883
_cell_angle_alpha    65.0256599809
_cell_angle_beta    104.652997989
_cell_angle_gamma    104.321985077
_symmetry_space_group_name_H-M    'P 1'
loop_
_atom_site_label
_atom_site_type_symbol
_atom_site_fract_x
_atom_site_fract_y
_atom_site_fract_z
_atom_site_occupancy
C1   C   0.281016561800563   0.457945047105774   0.582522350506785   1.0
C2   C   0.558215957060199   0.443397712515136   0.520988162356971   1.0
H3   H   0.498819861025176   0.392433207884331   0.389916814210437   1.0
H4   H   0.710193309051803   0.733031454489868   0.495763749123285   1.0
H5   H   0.395854411381876   0.174307537705396   0.878630867275355   1.0
H6   H   0.189989976151892   0.545112176964217   0.811483176368363   1.0
H7   H   0.187728559546230   0.735541916026087   0.489729401060345   1.0
H8   H   0.677476250238115   0.199964563183073   0.627559515248741   1.0
H9   H   0.106882140625956   0.197649117547840   0.585339515754768   1.0
H10   H   0.555593577274358   0.646615606825144   0.796251545545125   1.0
N14   N   0.355977711021367   0.459229636977170   0.777434672258238   1.0
