data_1
_audit_creation_method   'Generated by vasp2cif'
_cell_length_a    6.8909561669
_cell_length_b    3.82887500908
_cell_length_c    5.16145399801
_cell_angle_alpha    115.91657242
_cell_angle_beta    74.1434833251
_cell_angle_gamma    105.65114519
_symmetry_space_group_name_H-M    'P 1'
loop_
_atom_site_label
_atom_site_type_symbol
_atom_site_fract_x
_atom_site_fract_y
_atom_site_fract_z
_atom_site_occupancy
C1   C   0.571559703972871   0.474376537118567   0.451716280160550   1.0
C2   C   0.685554021658781   0.859650888474413   0.644403511841782   1.0
H3   H   0.729847305145909   0.808605010122744   0.810471470074590   1.0
H4   H   0.824413072022956   0.973092074589625   0.524328961185256   1.0
H5   H   0.533144836611458   0.668491307793631   0.144762307526543   1.0
H6   H   0.333967529248740   0.702559968613703   0.417749227792483   1.0
H7   H   0.680000964525016   0.285294555499459   0.295916169732004   1.0
H8   H   0.587286670410916   0.080443494248707   0.756738421843733   1.0
H9   H   0.460452679574611   0.326936625639139   0.581700532204509   1.0
H10   H   0.370935707353481   0.264070143081360   0.157513800068137   1.0
N14   N   0.447295497727203   0.534851933572745   0.282241083500309   1.0
