data_1
_audit_creation_method   'Generated by vasp2cif'
_cell_length_a    4.68746300519
_cell_length_b    3.63526529344
_cell_length_c    7.34397904481
_cell_angle_alpha    92.0150055716
_cell_angle_beta    81.8140655162
_cell_angle_gamma    69.29006077
_symmetry_space_group_name_H-M    'P 1'
loop_
_atom_site_label
_atom_site_type_symbol
_atom_site_fract_x
_atom_site_fract_y
_atom_site_fract_z
_atom_site_occupancy
C1   C   0.374955157677737   0.630745176881699   0.501708451069971   1.0
C2   C   0.665534112044439   0.684565193499164   0.543895202798580   1.0
H3   H   0.841697793870633   0.400241070009356   0.553719936840006   1.0
H4   H   0.758862636361586   0.831346311494853   0.437509027250643   1.0
H5   H   0.636640475799377   0.226875474263894   0.269985569514130   1.0
H6   H   0.411886310946830   0.642218199358868   0.213076174197746   1.0
H7   H   0.306533737059009   0.445161740890747   0.597837629336172   1.0
H8   H   0.618234920381099   0.855437120841306   0.676940337235572   1.0
H9   H   0.181459629881654   0.907399806859454   0.512689481479180   1.0
H10   H   0.252693568782197   0.323846333278779   0.292482632075715   1.0
N14   N   0.419465268347051   0.440631749998393   0.309980627637329   1.0
