data_1
_audit_creation_method   'Generated by vasp2cif'
_cell_length_a    7.45693103151
_cell_length_b    3.82132121041
_cell_length_c    4.08447825814
_cell_angle_alpha    88.725274605
_cell_angle_beta    89.2703916862
_cell_angle_gamma    89.0276047494
_symmetry_space_group_name_H-M    'P 1'
loop_
_atom_site_label
_atom_site_type_symbol
_atom_site_fract_x
_atom_site_fract_y
_atom_site_fract_z
_atom_site_occupancy
C1   C   0.373260954362976   0.790635177664988   0.408857982119279   1.0
C2   C   0.530540641105432   0.538969329426571   0.428788674635591   1.0
H3   H   0.536480427278917   0.371646893207711   0.217114653008139   1.0
H4   H   0.651919326197124   0.690829464115311   0.435574926961984   1.0
H5   H   0.189018015531289   0.450037616130040   0.196177887439696   1.0
H6   H   0.091359729398548   0.783710313267925   0.397533012767752   1.0
H7   H   0.365888493079154   0.953061648661098   0.622391639497273   1.0
H8   H   0.523038230208556   0.374935763107764   0.649358037357040   1.0
H9   H   0.379488514236492   0.951597719927214   0.187534704120580   1.0
H10   H   0.181179167646832   0.436249180643280   0.600455994085557   1.0
N14   N   0.196995527488234   0.604139661725384   0.399990593481846   1.0
