data_1
_audit_creation_method   'Generated by vasp2cif'
_cell_length_a    6.70960013794
_cell_length_b    4.28390495174
_cell_length_c    4.74642929797
_cell_angle_alpha    112.994561377
_cell_angle_beta    105.671746747
_cell_angle_gamma    82.403896249
_symmetry_space_group_name_H-M    'P 1'
loop_
_atom_site_label
_atom_site_type_symbol
_atom_site_fract_x
_atom_site_fract_y
_atom_site_fract_z
_atom_site_occupancy
C1   C   0.626781500833197   0.598181887506641   0.469690268987804   1.0
C2   C   0.498194541223718   0.758294218952216   0.709790834151583   1.0
H3   H   0.344168502620384   0.656080913092168   0.625090992086200   1.0
H4   H   0.577260056636568   0.711017116356558   0.921555672669605   1.0
H5   H   0.723040406923992   0.205240193758293   0.628249580595678   1.0
H6   H   0.762639893495120   0.124872223734833   0.273709756121619   1.0
H7   H   0.547046619678369   0.611985780880794   0.243141548049408   1.0
H8   H   0.480361555008649   0.031199450110108   0.766820867758696   1.0
H9   H   0.779757010798392   0.702893738524082   0.544024866722346   1.0
H10   H   0.516462236707618   0.119639072655559   0.314197983146968   1.0
N14   N   0.659833627322065   0.230113637330369   0.414359583045808   1.0
