data_1
_audit_creation_method   'Generated by vasp2cif'
_cell_length_a    4.5680301402
_cell_length_b    4.84971269073
_cell_length_c    6.76097728097
_cell_angle_alpha    106.263994158
_cell_angle_beta    80.6733335928
_cell_angle_gamma    91.015762746
_symmetry_space_group_name_H-M    'P 1'
loop_
_atom_site_label
_atom_site_type_symbol
_atom_site_fract_x
_atom_site_fract_y
_atom_site_fract_z
_atom_site_occupancy
C1   C   0.413524478319253   0.737258569921622   0.604156201069451   1.0
C2   C   0.366056432010005   0.458251325793697   0.664595886263371   1.0
C3   C   0.435712601882599   0.492542345381700   0.882088894301567   1.0
H4   H   0.300882664280195   0.667961861548491   0.994063902273602   1.0
H5   H   0.389644763753644   0.298088651714508   0.928560127247707   1.0
H6   H   0.507866530407405   0.286699064964999   0.552165883809685   1.0
H7   H   0.134497619487043   0.394113600359240   0.658751069171977   1.0
H8   H   0.396114801294964   0.550390588854214   0.289417397384987   1.0
H9   H   0.311083183836708   0.900338178904704   0.359895231235065   1.0
H10   H   0.669566652960484   0.537387786569234   0.887176136938571   1.0
H11   H   0.298534419661202   0.915327619902015   0.724465474270012   1.0
H12   H   0.646826341338425   0.786440286693761   0.575438314254228   1.0
H13   H   0.068442058732551   0.665769036585822   0.421112939590699   1.0
N17   N   0.288682015011005   0.716035123019239   0.408577640013768   1.0
