data_1
_audit_creation_method   'Generated by vasp2cif'
_cell_length_a    4.86215289262
_cell_length_b    5.13501210274
_cell_length_c    6.13229071196
_cell_angle_alpha    106.866360566
_cell_angle_beta    75.9306835316
_cell_angle_gamma    94.0790557712
_symmetry_space_group_name_H-M    'P 1'
loop_
_atom_site_label
_atom_site_type_symbol
_atom_site_fract_x
_atom_site_fract_y
_atom_site_fract_z
_atom_site_occupancy
C1   C   0.508650829633415   0.649469318503431   0.603430392694636   1.0
C2   C   0.390003407051838   0.442817814072789   0.736552738312648   1.0
C3   C   0.608279747975762   0.371469534669709   0.849997820310797   1.0
H4   H   0.669614670742910   0.550515738796419   0.975141044676640   1.0
H5   H   0.525295662143240   0.222923233673365   0.943761518207033   1.0
H6   H   0.327135381097484   0.259157014346297   0.615748990995589   1.0
H7   H   0.198569853753545   0.520718426858625   0.868814373560335   1.0
H8   H   0.286955671640048   0.489421119149621   0.335841166488676   1.0
H9   H   0.383989604027590   0.813070686621359   0.361043614872568   1.0
H10   H   0.802194078410106   0.287646696982777   0.720996232362424   1.0
H11   H   0.526316802961360   0.850347963707191   0.721024891707180   1.0
H12   H   0.713457566934148   0.587201633194729   0.485889323878370   1.0
H13   H   0.120565339402844   0.737571795144951   0.563881609092544   1.0
N17   N   0.314152423008101   0.671888914298674   0.453602006055109   1.0
