data_1
_audit_creation_method   'Generated by vasp2cif'
_cell_length_a    4.62114747201
_cell_length_b    5.53463295227
_cell_length_c    5.72051159023
_cell_angle_alpha    78.9000171607
_cell_angle_beta    75.0115453072
_cell_angle_gamma    87.0576321911
_symmetry_space_group_name_H-M    'P 1'
loop_
_atom_site_label
_atom_site_type_symbol
_atom_site_fract_x
_atom_site_fract_y
_atom_site_fract_z
_atom_site_occupancy
C1   C   0.506497386789327   0.638185734394767   0.375864752640574   1.0
C2   C   0.565657432834598   0.509191825780590   0.157921561756176   1.0
C3   C   0.425262504051965   0.255944874909062   0.217659389511333   1.0
H4   H   0.180389290945207   0.263122106071229   0.268673753540490   1.0
H5   H   0.489690925773779   0.164096951182067   0.060827612769650   1.0
H6   H   0.807374812205694   0.494885377763545   0.082321828756825   1.0
H7   H   0.476348236128835   0.629234670180530   0.019384527345366   1.0
H8   H   0.899177951757444   0.494215261008279   0.469849691007340   1.0
H9   H   0.596095403756586   0.343795691059668   0.649507491433098   1.0
H10   H   0.500059384872230   0.142214192002200   0.368062339518886   1.0
H11   H   0.584053381026536   0.825409017807551   0.320709133577900   1.0
H12   H   0.273167623369126   0.634266576048262   0.476610497358571   1.0
H13   H   0.675853522271623   0.626347261050213   0.683150815161035   1.0
N17   N   0.679066591306807   0.515488198842341   0.557698412259505   1.0
