data_1
_audit_creation_method   'Generated by vasp2cif'
_cell_length_a    8.90634789114
_cell_length_b    3.75046052239
_cell_length_c    4.79380513362
_cell_angle_alpha    69.5162576434
_cell_angle_beta    75.2595449034
_cell_angle_gamma    65.842882329
_symmetry_space_group_name_H-M    'P 1'
loop_
_atom_site_label
_atom_site_type_symbol
_atom_site_fract_x
_atom_site_fract_y
_atom_site_fract_z
_atom_site_occupancy
C1   C   0.906392384542677   0.315860301614844   0.337448979021570   1.0
C2   C   0.746003549687945   0.258616849769119   0.512070955396577   1.0
C3   C   0.638056739042125   0.309857771935759   0.288316326259773   1.0
H4   H   0.534635464956798   0.206968743565702   0.399476831837715   1.0
H5   H   0.711212675419779   0.137149805510286   0.126921241181541   1.0
H6   H   0.770033192087424   0.959379751778516   0.678608796901460   1.0
H7   H   0.679352709509890   0.484472727307877   0.637354173783562   1.0
H8   H   0.080859737019518   0.989062442351871   0.646241971055483   1.0
H9   H   0.961099952093633   0.443040552329841   0.689159666633649   1.0
H10   H   0.977542239552726   0.089848943562867   0.215229417640489   1.0
H11   H   0.587652886056246   0.629436398023578   0.163738065358242   1.0
H12   H   0.878809403929482   0.612743200654539   0.173897597422617   1.0
H13   H   0.112895495178615   0.409169039288029   0.410729944190990   1.0
N17   N   0.020907364013650   0.289576275587094   0.530383959127078   1.0
