data_1
_audit_creation_method   'Generated by vasp2cif'
_cell_length_a    4.70393834151
_cell_length_b    3.79597086625
_cell_length_c    8.34584839863
_cell_angle_alpha    91.0132864609
_cell_angle_beta    111.331359366
_cell_angle_gamma    99.3112195397
_symmetry_space_group_name_H-M    'P 1'
loop_
_atom_site_label
_atom_site_type_symbol
_atom_site_fract_x
_atom_site_fract_y
_atom_site_fract_z
_atom_site_occupancy
C1   C   0.059538959759088   0.565282090016019   0.461796449226895   1.0
C2   C   0.721613984616909   0.595472848067978   0.419747681998686   1.0
C3   C   0.580249077619371   0.743240752884013   0.245402676243756   1.0
H4   H   0.726399920791216   0.984892418373271   0.232659094070748   1.0
H5   H   0.356519647943706   0.811081262326489   0.230047096217838   1.0
H6   H   0.589686944757240   0.331067267974241   0.420233941807965   1.0
H7   H   0.707252281040603   0.765435392936574   0.522426308334452   1.0
H8   H   0.027130480328410   0.243076316662027   0.659278264372155   1.0
H9   H   0.238204470431654   0.636628585073062   0.734313897163595   1.0
H10   H   0.084486429815520   0.381722160129179   0.368306530018266   1.0
H11   H   0.543520255279219   0.545570780209488   0.140313792675165   1.0
H12   H   0.202070788386628   0.823378306687644   0.463674795325325   1.0
H13   H   0.389693798976211   0.326789799692847   0.661300849543764   1.0
N17   N   0.190091600461763   0.433186067823463   0.638195149467613   1.0
