data_1
_audit_creation_method   'Generated by vasp2cif'
_cell_length_a    5.02891819073
_cell_length_b    5.1172566994
_cell_length_c    7.53122658513
_cell_angle_alpha    59.7043548264
_cell_angle_beta    123.23388038
_cell_angle_gamma    107.517957148
_symmetry_space_group_name_H-M    'P 1'
loop_
_atom_site_label
_atom_site_type_symbol
_atom_site_fract_x
_atom_site_fract_y
_atom_site_fract_z
_atom_site_occupancy
C1   C   0.897214620976911   0.618182903090450   0.353335750694207   1.0
C2   C   0.733527830365212   0.767882143539403   0.396625100196999   1.0
C3   C   0.503865260947983   0.006407762839323   0.177159288997288   1.0
H4   H   0.624408302477747   0.191667614630802   0.089311532996923   1.0
H5   H   0.392526492495214   0.096005532443627   0.222938956913481   1.0
H6   H   0.605510139511260   0.592881646443253   0.485574593362557   1.0
H7   H   0.915503392424633   0.872385887244015   0.512252045317545   1.0
H8   H   0.963729999778025   0.212968155681899   0.656802381831824   1.0
H9   H   0.260426056973742   0.455357748807962   0.703897029804310   1.0
H10   H   0.725620551309483   0.516683916720908   0.234200089378021   1.0
H11   H   0.320279786282598   0.919385990302935   0.050766000544677   1.0
H12   H   0.052776718971288   0.777490323835686   0.284904418107828   1.0
H13   H   0.219238582824467   0.263886802029063   0.559357681692191   1.0
N17   N   0.102003199492565   0.367027106636051   0.583363919444821   1.0
