data_1
_audit_creation_method   'Generated by vasp2cif'
_cell_length_a    4.60090310015
_cell_length_b    5.70813391934
_cell_length_c    6.80259632032
_cell_angle_alpha    71.433726109
_cell_angle_beta    82.6165331193
_cell_angle_gamma    84.221581811
_symmetry_space_group_name_H-M    'P 1'
loop_
_atom_site_label
_atom_site_type_symbol
_atom_site_fract_x
_atom_site_fract_y
_atom_site_fract_z
_atom_site_occupancy
C1   C   0.613370267020093   0.669775299683282   0.799886210695748   1.0
C2   C   0.425376164771018   0.232100758811910   0.514520837360472   1.0
C3   C   0.381390010975892   0.384388396757069   0.663373534570460   1.0
C4   C   0.585060516623777   0.595833093285780   0.607858547225028   1.0
H5   H   0.214781462959613   0.502870336988628   0.270555086221988   1.0
H6   H   0.409023949725444   0.277948102608803   0.199529979903192   1.0
H7   H   0.581678204039318   0.504005954337174   0.237849882946873   1.0
H8   H   0.397755603676457   0.719588510472901   0.870473320847595   1.0
H9   H   0.718119644252751   0.514417451397729   0.913938923638487   1.0
H10   H   0.750266723825502   0.824255856763813   0.767251622845592   1.0
H11   H   0.420112955694566   0.255242642536434   0.815625719762194   1.0
H12   H   0.154116842363793   0.457603679800733   0.675850591935994   1.0
H13   H   0.801959670902757   0.538739278664269   0.545682537199249   1.0
H14   H   0.500183337388300   0.753201958820292   0.484802214225266   1.0
H15   H   0.643586083600294   0.137177718009685   0.519957157358908   1.0
H16   H   0.260760631956656   0.095933413287147   0.550611503219161   1.0
N20   N   0.407457585174125   0.391454879248893   0.291281688778781   1.0
