data_1
_audit_creation_method   'Generated by vasp2cif'
_cell_length_a    5.71487225931
_cell_length_b    6.52308435505
_cell_length_c    4.58802516529
_cell_angle_alpha    82.1269716403
_cell_angle_beta    91.7186440857
_cell_angle_gamma    106.972036153
_symmetry_space_group_name_H-M    'P 1'
loop_
_atom_site_label
_atom_site_type_symbol
_atom_site_fract_x
_atom_site_fract_y
_atom_site_fract_z
_atom_site_occupancy
C1   C   0.258000681642244   0.718181928251560   0.576040904919331   1.0
C2   C   0.455201006768149   0.240576774199838   0.396899103412103   1.0
C3   C   0.310869808578900   0.403475230827304   0.349887104935995   1.0
C4   C   0.275791697608867   0.488351023754710   0.634932981192890   1.0
H5   H   0.798503727258790   0.461540046070198   0.297417049166270   1.0
H6   H   0.807549923912227   0.230214173069037   0.503329941535824   1.0
H7   H   0.737040616864810   0.426144107622882   0.658963395836075   1.0
H8   H   0.414148817974386   0.817995481156316   0.441438330650762   1.0
H9   H   0.094508459746144   0.730432088486971   0.455193616926621   1.0
H10   H   0.256654316233316   0.785914898465464   0.779587403723752   1.0
H11   H   0.137811526056915   0.325557612442537   0.250581393659424   1.0
H12   H   0.404956895700302   0.539986441275069   0.189204599904890   1.0
H13   H   0.119567323527555   0.378943699382511   0.761786627981365   1.0
H14   H   0.431953893172263   0.487227995947187   0.776622176565155   1.0
H15   H   0.377175603622789   0.115665085003926   0.577975659932427   1.0
H16   H   0.463529777939122   0.165927386920686   0.201255015249139   1.0
N20   N   0.718366703663584   0.348293175015499   0.474233577504990   1.0
