data_1
_audit_creation_method   'Generated by vasp2cif'
_cell_length_a    5.08645698627
_cell_length_b    5.33941412664
_cell_length_c    5.39118464736
_cell_angle_alpha    90.8235413797
_cell_angle_beta    100.435404604
_cell_angle_gamma    73.2356369879
_symmetry_space_group_name_H-M    'P 1'
loop_
_atom_site_label
_atom_site_type_symbol
_atom_site_fract_x
_atom_site_fract_y
_atom_site_fract_z
_atom_site_occupancy
C1   C   0.242431258970129   0.749703293100204   0.538830846188532   1.0
C2   C   0.323020747457647   0.891468440023274   0.337493939424782   1.0
C3   C   0.530084504749354   0.041900952809236   0.434394522175872   1.0
H4   H   0.418385007711201   0.227126418005412   0.502101702156111   1.0
H5   H   0.685625549223353   0.933016304085491   0.590970211991582   1.0
H6   H   0.634300525240299   0.079569324348711   0.285603685981393   1.0
H7   H   0.533460891154206   0.774326043333879   0.034154230964226   1.0
H8   H   0.133277787828106   0.018377344887007   0.224923297964075   1.0
H9   H   0.150318434611840   0.887248604071296   0.671278868743499   1.0
H10   H   0.424361097163263   0.605131790261730   0.644563669043833   1.0
H11   H   0.091371091567098   0.649634174543792   0.457391145079654   1.0
H12   H   0.308787848970823   0.603453760074935   0.064105295465353   1.0
H13   H   0.616887875518181   0.547363117287553   0.265088358069100   1.0
N17   N   0.451761472650432   0.689674119550816   0.160095066397652   1.0
