data_1
_audit_creation_method   'Generated by vasp2cif'
_cell_length_a    5.42719838759
_cell_length_b    4.31671455526
_cell_length_c    5.97849645708
_cell_angle_alpha    83.7611381721
_cell_angle_beta    92.9096188567
_cell_angle_gamma    86.7432097944
_symmetry_space_group_name_H-M    'P 1'
loop_
_atom_site_label
_atom_site_type_symbol
_atom_site_fract_x
_atom_site_fract_y
_atom_site_fract_z
_atom_site_occupancy
C1   C   0.675973849408329   0.647740093508534   0.641061416560959   1.0
C2   C   0.432186821157371   0.499583842380267   0.669955046175622   1.0
C3   C   0.273325078159960   0.649043755184237   0.836689892468913   1.0
H4   H   0.387563169777150   0.682377130951288   0.985804539122711   1.0
H5   H   0.125971206798209   0.501817054457955   0.888051791853948   1.0
H6   H   0.191155234299635   0.876730215155466   0.762957065163120   1.0
H7   H   0.407647264008642   0.435707788749710   0.325312698550025   1.0
H8   H   0.462250629352579   0.249312393949008   0.721487209726215   1.0
H9   H   0.775128840364988   0.637589269146940   0.803095377964008   1.0
H10   H   0.786948334053360   0.528010466850654   0.527243577314828   1.0
H11   H   0.645952685461011   0.890971543817931   0.570511912849447   1.0
H12   H   0.141034352976248   0.402765318833358   0.439424827403358   1.0
H13   H   0.245117787719217   0.759443818226663   0.387816627390410   1.0
N17   N   0.296994497913814   0.529083638362916   0.440029414033243   1.0
