data_1
_audit_creation_method   'Generated by vasp2cif'
_cell_length_a    4.39617291238
_cell_length_b    4.74599150485
_cell_length_c    7.69026116065
_cell_angle_alpha    112.448451317
_cell_angle_beta    92.0314250224
_cell_angle_gamma    104.684552924
_symmetry_space_group_name_H-M    'P 1'
loop_
_atom_site_label
_atom_site_type_symbol
_atom_site_fract_x
_atom_site_fract_y
_atom_site_fract_z
_atom_site_occupancy
C1   C   0.709815869568061   0.917392913213021   0.583161547147007   1.0
C2   C   0.593570192813594   0.599090990759393   0.600602497179331   1.0
C3   C   0.435630468359932   0.630316251697543   0.776849231741132   1.0
H4   H   0.601649699202319   0.786483389752988   0.906175843880597   1.0
H5   H   0.348226073460623   0.401496347318599   0.785819081092221   1.0
H6   H   0.239674529521942   0.733447772915866   0.777538056272732   1.0
H7   H   0.470776658937282   0.291080085250435   0.309652593592695   1.0
H8   H   0.789751085671277   0.497070247646697   0.599956999380261   1.0
H9   H   0.729911266881459   0.889786570228082   0.437400945144311   1.0
H10   H   0.544634389129740   0.055262371820071   0.637417071514122   1.0
H11   H   0.941433711010703   0.048359182815851   0.670649857818454   1.0
H12   H   0.243805398777269   0.153631863745986   0.437761958636273   1.0
H13   H   0.191549453906639   0.462780680912417   0.397708017025316   1.0
N17   N   0.357341764704309   0.363744852509647   0.428293122104265   1.0
