data_1
_audit_creation_method   'Generated by vasp2cif'
_cell_length_a    5.98892842798
_cell_length_b    4.91436248974
_cell_length_c    4.68174488675
_cell_angle_alpha    95.9804528926
_cell_angle_beta    84.9050740957
_cell_angle_gamma    88.896531552
_symmetry_space_group_name_H-M    'P 1'
loop_
_atom_site_label
_atom_site_type_symbol
_atom_site_fract_x
_atom_site_fract_y
_atom_site_fract_z
_atom_site_occupancy
C1   C   0.646091152739296   0.239212595073887   0.369922623761109   1.0
C2   C   0.627108470514467   0.940055269317489   0.416929958068318   1.0
C3   C   0.763752740833403   0.878071810702553   0.661585701429705   1.0
H4   H   0.940381211192590   0.884489140209069   0.585522602002336   1.0
H5   H   0.729426742789342   0.679610903799954   0.734315454942111   1.0
H6   H   0.730342257970403   0.034779747807031   0.843710137132042   1.0
H7   H   0.289490556524130   0.969263598189543   0.336825113223733   1.0
H8   H   0.678695774766161   0.805296098276403   0.222226771327470   1.0
H9   H   0.821816307777018   0.289928866521328   0.358617295717677   1.0
H10   H   0.571858282441410   0.290040093183550   0.178096564425383   1.0
H11   H   0.561724183321255   0.361116519072667   0.557538752557432   1.0
H12   H   0.349360817663731   0.681151554948402   0.478392322612057   1.0
H13   H   0.322713219702022   0.974706416614754   0.689558339104814   1.0
N17   N   0.380682734711441   0.886226699283610   0.485657394298807   1.0
