data_1
_audit_creation_method   'Generated by vasp2cif'
_cell_length_a    5.70141393064
_cell_length_b    3.96568125132
_cell_length_c    7.00489444265
_cell_angle_alpha    101.581852308
_cell_angle_beta    85.0301081475
_cell_angle_gamma    116.894883636
_symmetry_space_group_name_H-M    'P 1'
loop_
_atom_site_label
_atom_site_type_symbol
_atom_site_fract_x
_atom_site_fract_y
_atom_site_fract_z
_atom_site_occupancy
C1   C   0.279459997676646   0.511487539423278   0.273152039772462   1.0
C2   C   0.449465639883130   0.431388524965442   0.395991901673170   1.0
C3   C   0.669974032529161   0.390658303393145   0.270628105786557   1.0
H4   H   0.598177395361873   0.237936993312587   0.124355963036898   1.0
H5   H   0.760758039927175   0.246029910841344   0.329615229889846   1.0
H6   H   0.821811536932927   0.677907917761566   0.257051163333280   1.0
H7   H   0.445231931162020   0.867463554702269   0.631804711581033   1.0
H8   H   0.325894210617896   0.178289636788371   0.458209818993453   1.0
H9   H   0.395770179294907   0.677339731268866   0.163830747847335   1.0
H10   H   0.134919559323293   0.237431194094960   0.195513920963251   1.0
H11   H   0.170381157263051   0.648483867692264   0.361461393833451   1.0
H12   H   0.597235896069670   0.632198461933136   0.685804069302733   1.0
H13   H   0.744249069934455   0.967113015888508   0.552083167506275   1.0
N17   N   0.565939743524552   0.741604094785856   0.574139736253784   1.0
