data_1
_audit_creation_method   'Generated by vasp2cif'
_cell_length_a    5.89327145071
_cell_length_b    4.31476778877
_cell_length_c    5.48796131848
_cell_angle_alpha    88.9801969586
_cell_angle_beta    87.5251052825
_cell_angle_gamma    94.3920333677
_symmetry_space_group_name_H-M    'P 1'
loop_
_atom_site_label
_atom_site_type_symbol
_atom_site_fract_x
_atom_site_fract_y
_atom_site_fract_z
_atom_site_occupancy
C1   C   0.431009965638900   0.617193580403978   0.778562137988530   1.0
C2   C   0.445992638328498   0.497285495007347   0.521861526241516   1.0
C3   C   0.283000131230409   0.646200440510817   0.355984509483918   1.0
H4   H   0.122347671595385   0.666850916062451   0.457037417347983   1.0
H5   H   0.251915746756197   0.505343611135451   0.197788717706693   1.0
H6   H   0.350860211355652   0.877621126617747   0.293512748910942   1.0
H7   H   0.708203388011640   0.518290189071941   0.241296150921229   1.0
H8   H   0.412293874400241   0.245036246253022   0.523586600972138   1.0
H9   H   0.533748988190183   0.490730330492923   0.899358403342816   1.0
H10   H   0.487271024902242   0.863980404589491   0.783957583008544   1.0
H11   H   0.254499926403177   0.588090989325551   0.842371953432909   1.0
H12   H   0.748407255956437   0.785638083008912   0.457625945576254   1.0
H13   H   0.791054844394417   0.412478298910912   0.513958715479447   1.0
N17   N   0.689969037849544   0.559927956917853   0.424427303732095   1.0
