data_1
_audit_creation_method   'Generated by vasp2cif'
_cell_length_a    5.4899764624
_cell_length_b    4.79093577973
_cell_length_c    4.64600390316
_cell_angle_alpha    83.0958388145
_cell_angle_beta    103.673276521
_cell_angle_gamma    99.0516062031
_symmetry_space_group_name_H-M    'P 1'
loop_
_atom_site_label
_atom_site_type_symbol
_atom_site_fract_x
_atom_site_fract_y
_atom_site_fract_z
_atom_site_occupancy
H4   H   0.324252860680694   0.663547549881436   0.209692852982663   1.0
H5   H   0.671189936144330   0.430387149879301   0.196869857143149   1.0
H6   H   0.564890436036599   0.761627187670008   0.484826606576505   1.0
H7   H   0.110858337292392   0.347539448335347   0.526108533364081   1.0
H8   H   0.380160208735973   0.395629904009439   0.821854536975522   1.0
H9   H   0.195807781011190   0.679515541391559   0.681233604163239   1.0
H10   H   0.430481708431351   0.178022430446809   0.309039918970207   1.0
H11   H   0.695641423186714   0.315909341279628   0.579436698384797   1.0
C12   C   0.265375203154243   0.497943189081560   0.628132719899860   1.0
C13   C   0.568184412013153   0.362396073295372   0.369744750477331   1.0
N15   N   0.430588719496150   0.594379459938615   0.411047150911493   1.0
