data_1
_audit_creation_method   'Generated by vasp2cif'
_cell_length_a    5.41979793346
_cell_length_b    4.78795583055
_cell_length_c    4.82286830656
_cell_angle_alpha    76.7865068722
_cell_angle_beta    105.415353037
_cell_angle_gamma    97.8993712286
_symmetry_space_group_name_H-M    'P 1'
loop_
_atom_site_label
_atom_site_type_symbol
_atom_site_fract_x
_atom_site_fract_y
_atom_site_fract_z
_atom_site_occupancy
H4   H   0.512097638726942   0.757151751359004   0.347172438293143   1.0
H5   H   0.721034210191405   0.387448653796127   0.268415522839526   1.0
H6   H   0.679185163624950   0.578353003713005   0.664834585787354   1.0
H7   H   0.118342001721516   0.476052287528482   0.434553032876686   1.0
H8   H   0.306982057052778   0.280065777433556   0.756411428466990   1.0
H9   H   0.269043707052745   0.653358869698195   0.731695665208186   1.0
H10   H   0.382870698398868   0.332547376813885   0.161487447295016   1.0
H11   H   0.554748542855954   0.135700280015392   0.503315617690113   1.0
C12   C   0.283947622408242   0.491095104725446   0.615821234283310   1.0
C13   C   0.547561229899607   0.336978953932075   0.345118111555188   1.0
N15   N   0.517417368920832   0.565058615461624   0.495943305457452   1.0
