data_1
_audit_creation_method   'Generated by vasp2cif'
_cell_length_a    5.32366637008
_cell_length_b    4.82463464706
_cell_length_c    4.85494702414
_cell_angle_alpha    84.6882158123
_cell_angle_beta    80.5026249825
_cell_angle_gamma    73.2286825229
_symmetry_space_group_name_H-M    'P 1'
loop_
_atom_site_label
_atom_site_type_symbol
_atom_site_fract_x
_atom_site_fract_y
_atom_site_fract_z
_atom_site_occupancy
H4   H   0.381489759509648   0.768525058346448   0.309856717689087   1.0
H5   H   0.248390320252980   0.334413081575299   0.297319333238185   1.0
H6   H   0.638882170110982   0.503533015168927   0.172995928131513   1.0
H7   H   0.541075616755386   0.678149321629789   0.753865101075604   1.0
H8   H   0.810563093884397   0.397953055782523   0.597161940612331   1.0
H9   H   0.778290899063364   0.765313990141934   0.485411887277124   1.0
H10   H   0.226918572167136   0.439009797943804   0.645384987248242   1.0
H11   H   0.499258442846532   0.156695584828192   0.508665072149199   1.0
C12   C   0.672970566903771   0.606420610859189   0.562978752135038   1.0
C13   C   0.358179038281335   0.358658521596411   0.457787040661465   1.0
N15   N   0.510886679258149   0.572256060194540   0.352690168906136   1.0
