data_1
_audit_creation_method   'Generated by vasp2cif'
_cell_length_a    4.83284055789
_cell_length_b    3.56398987268
_cell_length_c    7.08618919224
_cell_angle_alpha    93.769226125
_cell_angle_beta    78.3828685828
_cell_angle_gamma    97.6731744672
_symmetry_space_group_name_H-M    'P 1'
loop_
_atom_site_label
_atom_site_type_symbol
_atom_site_fract_x
_atom_site_fract_y
_atom_site_fract_z
_atom_site_occupancy
H4   H   0.852710942275770   0.350140439291742   0.425233391976697   1.0
H5   H   0.332276015753756   0.418958184920925   0.576543058934831   1.0
H6   H   0.439119873627696   0.852746877576827   0.628623695153784   1.0
H7   H   0.475405497929863   0.479259984639619   0.238986039152877   1.0
H8   H   0.285367043966168   0.861592973328555   0.332795102580050   1.0
H9   H   0.664212218749114   0.930804929710604   0.273330608590740   1.0
H10   H   0.729567581179637   0.363865159249180   0.682424204217497   1.0
H11   H   0.913912877691587   0.773020357557236   0.567206966950359   1.0
C12   C   0.478695193459551   0.736014520066469   0.329181360907846   1.0
C13   C   0.768728369346505   0.519137186340025   0.551387393355071   1.0
N15   N   0.491022145832908   0.636451136828192   0.529121992229847   1.0
