data_1
_audit_creation_method   'Generated by vasp2cif'
_cell_length_a    4.87836323517
_cell_length_b    3.65616388435
_cell_length_c    6.87088292711
_cell_angle_alpha    91.3940921734
_cell_angle_beta    79.4266600821
_cell_angle_gamma    98.8935919995
_symmetry_space_group_name_H-M    'P 1'
loop_
_atom_site_label
_atom_site_type_symbol
_atom_site_fract_x
_atom_site_fract_y
_atom_site_fract_z
_atom_site_occupancy
H4   H   0.815716403405261   0.266466273893180   0.422387282578576   1.0
H5   H   0.320675108824275   0.374111368621889   0.579420489679769   1.0
H6   H   0.459289985416554   0.794706610919540   0.620365289771065   1.0
H7   H   0.461467439671097   0.438660892568628   0.226086317700741   1.0
H8   H   0.269581048560560   0.795395626705329   0.324941722369552   1.0
H9   H   0.641555491276897   0.890120831821015   0.259296071187151   1.0
H10   H   0.719050207129726   0.309876573284896   0.686795958448741   1.0
H11   H   0.915239682900427   0.688456092392649   0.541520709631428   1.0
C12   C   0.464131892862007   0.683626848610579   0.318078934475238   1.0
C13   C   0.754498606615122   0.448024780914388   0.544257915986805   1.0
N15   N   0.486017927307536   0.580131243388671   0.523034819557495   1.0
