data_1
_audit_creation_method   'Generated by vasp2cif'
_cell_length_a    4.96976317909
_cell_length_b    5.16830052587
_cell_length_c    5.21220440311
_cell_angle_alpha    89.0128270918
_cell_angle_beta    106.271024318
_cell_angle_gamma    73.9626365202
_symmetry_space_group_name_H-M    'P 1'
loop_
_atom_site_label
_atom_site_type_symbol
_atom_site_fract_x
_atom_site_fract_y
_atom_site_fract_z
_atom_site_occupancy
C1   C   0.319715245291426   0.417413473436706   0.586675159310349   1.0
C2   C   0.517422650926651   0.527757524260705   0.479862495007922   1.0
H3   H   0.737858079175172   0.488114261860607   0.195718575329991   1.0
H4   H   0.731937914912553   0.819713163903138   0.523824288086792   1.0
H5   H   0.332676000168467   0.211665897059950   0.541386787843081   1.0
H6   H   0.096812191243763   0.542872115583489   0.490566746616894   1.0
H7   H   0.362524904112291   0.429177346550034   0.800937465101375   1.0
H8   H   0.542558820096451   0.802409375689292   0.751550714529952   1.0
H9   H   0.551616351039758   0.253880225811469   0.209050466557852   1.0
N13   N   0.596545889379273   0.426370635191762   0.272882988677243   1.0
N14   N   0.590351928891216   0.739307389570625   0.581438809238927   1.0
