data_1
_audit_creation_method   'Generated by vasp2cif'
_cell_length_a    4.89808672384
_cell_length_b    5.26499597885
_cell_length_c    5.20367605108
_cell_angle_alpha    91.2454097774
_cell_angle_beta    106.046620304
_cell_angle_gamma    106.107953242
_symmetry_space_group_name_H-M    'P 1'
loop_
_atom_site_label
_atom_site_type_symbol
_atom_site_fract_x
_atom_site_fract_y
_atom_site_fract_z
_atom_site_occupancy
C1   C   0.672892446692913   0.506031162557697   0.518252375033313   1.0
C2   C   0.498825883966319   0.630776625702858   0.645754643454794   1.0
H3   H   0.288484365751820   0.595856830359708   0.940093422289017   1.0
H4   H   0.282784005391122   0.917439629283500   0.613314268706581   1.0
H5   H   0.829506778266072   0.434103977118966   0.666726516068550   1.0
H6   H   0.790219354773193   0.641187552228409   0.403890174654123   1.0
H7   H   0.521435121485816   0.335421971986143   0.380716889064203   1.0
H8   H   0.470900098612354   0.903368793009449   0.379304175228782   1.0
H9   H   0.479023589873385   0.367827536624013   0.923301197435045   1.0
N13   N   0.428169431547140   0.534168690957003   0.858335774223420   1.0
N14   N   0.421212851855628   0.837522415776860   0.547552210927385   1.0
