data_1
_audit_creation_method   'Generated by vasp2cif'
_cell_length_a    4.74515507446
_cell_length_b    5.5340422381
_cell_length_c    4.85314746558
_cell_angle_alpha    79.5351960272
_cell_angle_beta    100.374416519
_cell_angle_gamma    87.2488887487
_symmetry_space_group_name_H-M    'P 1'
loop_
_atom_site_label
_atom_site_type_symbol
_atom_site_fract_x
_atom_site_fract_y
_atom_site_fract_z
_atom_site_occupancy
C1   C   0.611371482733471   0.477851084778143   0.374601629374344   1.0
C2   C   0.494729314827999   0.614104938972999   0.571374158583822   1.0
H3   H   0.186359747707173   0.619771123950939   0.814825517412338   1.0
H4   H   0.555165432139026   0.893687576615555   0.794414630941651   1.0
H5   H   0.753335945951196   0.586614332600712   0.258667158635446   1.0
H6   H   0.438516459182939   0.424594616168911   0.225560161304377   1.0
H7   H   0.730083108645796   0.308859935452020   0.499877385311571   1.0
H8   H   0.788171259511423   0.868413805662962   0.562249882480608   1.0
H9   H   0.191553784887335   0.377625792768099   0.622962416238747   1.0
N13   N   0.269843414417104   0.533876774061501   0.675051074019022   1.0
N14   N   0.622336888187715   0.802377353493112   0.650233073334119   1.0
