data_1
_audit_creation_method   'Generated by vasp2cif'
_cell_length_a    4.9517574307
_cell_length_b    3.46232726054
_cell_length_c    7.27843623805
_cell_angle_alpha    87.3717885392
_cell_angle_beta    93.5738907291
_cell_angle_gamma    99.188902323
_symmetry_space_group_name_H-M    'P 1'
loop_
_atom_site_label
_atom_site_type_symbol
_atom_site_fract_x
_atom_site_fract_y
_atom_site_fract_z
_atom_site_occupancy
C1   C   0.396598075924203   0.889412649388881   0.636230109332011   1.0
C2   C   0.552677116057794   0.831278841506361   0.474010869937253   1.0
H3   H   0.299225515253937   0.088885866960489   0.294514449119582   1.0
H4   H   0.559032068532922   0.899183310755078   0.193678928003315   1.0
H5   H   0.312273125542902   0.604214838195055   0.694397116257797   1.0
H6   H   0.528825635883173   0.039266936695611   0.744360021799274   1.0
H7   H   0.228673547059856   0.046648432540266   0.595202349181719   1.0
H8   H   0.865822811348480   0.571982122462899   0.389072356360785   1.0
H9   H   0.825343206304311   0.544530971678597   0.623693444852599   1.0
N13   N   0.463086411792723   0.942857018161241   0.309149175392200   1.0
N14   N   0.774875836490850   0.661816324545640   0.497956753151563   1.0
