data_1
_audit_creation_method   'Generated by vasp2cif'
_cell_length_a    4.82741614596
_cell_length_b    3.42214163395
_cell_length_c    8.07361736719
_cell_angle_alpha    111.334049939
_cell_angle_beta    88.712267407
_cell_angle_gamma    97.5995994146
_symmetry_space_group_name_H-M    'P 1'
loop_
_atom_site_label
_atom_site_type_symbol
_atom_site_fract_x
_atom_site_fract_y
_atom_site_fract_z
_atom_site_occupancy
C1   C   0.358591239559509   0.564804353874173   0.633296341508888   1.0
C2   C   0.502777723458365   0.330079306164507   0.469333784826581   1.0
H3   H   0.484130298187836   0.103605587508319   0.197115668844241   1.0
H4   H   0.222828172120465   0.406059645442816   0.301469312091236   1.0
H5   H   0.287198609786131   0.350847461140347   0.701719073057134   1.0
H6   H   0.500625202448170   0.819435821084696   0.725894405726756   1.0
H7   H   0.179118802355333   0.685712262374686   0.600584484475164   1.0
H8   H   0.819317587187541   0.968624206457029   0.375678878055069   1.0
H9   H   0.798597154406387   0.190909404181738   0.606055239688601   1.0
N13   N   0.393675637606776   0.270003058471296   0.312633160690062   1.0
N14   N   0.736513862127211   0.178177169903122   0.484132966678530   1.0
