data_1
_audit_creation_method   'Generated by vasp2cif'
_cell_length_a    7.4607190223
_cell_length_b    3.52482647364
_cell_length_c    4.7362405652
_cell_angle_alpha    89.4077940499
_cell_angle_beta    90.0492553538
_cell_angle_gamma    86.8221719349
_symmetry_space_group_name_H-M    'P 1'
loop_
_atom_site_label
_atom_site_type_symbol
_atom_site_fract_x
_atom_site_fract_y
_atom_site_fract_z
_atom_site_occupancy
C1   C   0.639594110498841   0.899306890885825   0.571215758790871   1.0
C2   C   0.486151071465066   0.726204953165542   0.428682585319173   1.0
H3   H   0.306473004163067   0.873068488201213   0.735712842259552   1.0
H4   H   0.229918205792124   0.545815116151196   0.498122853322080   1.0
H5   H   0.736135161843244   0.673900786868700   0.642924471399397   1.0
H6   H   0.709721733219112   0.081886355651115   0.428545993575966   1.0
H7   H   0.594626443653205   0.059890859716148   0.754286453310662   1.0
H8   H   0.408803386465607   0.436248450674533   0.085098112961944   1.0
H9   H   0.637389706578524   0.532229506859842   0.099029628850580   1.0
N13   N   0.331030135081051   0.710987135520625   0.561513937054613   1.0
N14   N   0.510090144459703   0.578217487092644   0.175204919390602   1.0
