data_1
_audit_creation_method   'Generated by vasp2cif'
_cell_length_a    4.5518058432
_cell_length_b    4.46865179965
_cell_length_c    4.83245527841
_cell_angle_alpha    88.7656297897
_cell_angle_beta    103.783683641
_cell_angle_gamma    90.903866924
_symmetry_space_group_name_H-M    'P 1'
loop_
_atom_site_label
_atom_site_type_symbol
_atom_site_fract_x
_atom_site_fract_y
_atom_site_fract_z
_atom_site_occupancy
H4   H   0.408217737704526   0.488513751498296   0.170332844181715   1.0
H5   H   0.673073261800411   0.318563690351070   0.423670292504355   1.0
H6   H   0.662201173065647   0.695236931876728   0.400080683158919   1.0
H7   H   0.208374422344242   0.294094866569424   0.561863682138764   1.0
H8   H   0.476388095609494   0.525893744743342   0.788415769459974   1.0
H9   H   0.182731502573169   0.692993909600681   0.527488139999392   1.0
C10   C   0.332807831535867   0.503727900072313   0.577500399070679   1.0
N12   N   0.534781707741040   0.501728508260108   0.375209428870960   1.0
