data_1
_audit_creation_method   'Generated by vasp2cif'
_cell_length_a    4.6412432626
_cell_length_b    4.44100020036
_cell_length_c    4.78398239176
_cell_angle_alpha    93.4471355464
_cell_angle_beta    76.2843638442
_cell_angle_gamma    93.3768727319
_symmetry_space_group_name_H-M    'P 1'
loop_
_atom_site_label
_atom_site_type_symbol
_atom_site_fract_x
_atom_site_fract_y
_atom_site_fract_z
_atom_site_occupancy
H4   H   0.191782472803709   0.366680108067719   0.527864989759721   1.0
H5   H   0.478869023829667   0.425668964595907   0.252663126115067   1.0
H6   H   0.315180017784499   0.723127098531769   0.450478265515727   1.0
H7   H   0.632483897737288   0.254026132792909   0.658523631775594   1.0
H8   H   0.773483224590933   0.630991905102960   0.582051700100074   1.0
H9   H   0.459413600660909   0.567853019766154   0.865176174080290   1.0
C10   C   0.577284927584692   0.487204576597556   0.654500883157382   1.0
N12   N   0.376207359593074   0.505506634503725   0.454800252931349   1.0
