data_1
_audit_creation_method   'Generated by vasp2cif'
_cell_length_a    4.46373087577
_cell_length_b    3.79510253404
_cell_length_c    5.72933316883
_cell_angle_alpha    82.4826958679
_cell_angle_beta    88.2977679615
_cell_angle_gamma    87.4047045517
_symmetry_space_group_name_H-M    'P 1'
loop_
_atom_site_label
_atom_site_type_symbol
_atom_site_fract_x
_atom_site_fract_y
_atom_site_fract_z
_atom_site_occupancy
H4   H   0.276661207002441   0.739994681056871   0.420415681657744   1.0
H5   H   0.653620191919330   0.714136256713736   0.394839902992217   1.0
H6   H   0.461595896106950   0.063348325874735   0.262771924679171   1.0
H7   H   0.491950997997257   0.886206236807197   0.779474290174534   1.0
H8   H   0.701204347526016   0.214604131430789   0.601966585150024   1.0
H9   H   0.302358690029465   0.262102377048237   0.623011500853579   1.0
C10   C   0.492845558704055   0.076473722727947   0.622232056540064   1.0
N12   N   0.468615138981427   0.882520202710189   0.413743574771225   1.0
