data_1
_audit_creation_method   'Generated by vasp2cif'
_cell_length_a    4.65227202179
_cell_length_b    3.57530083584
_cell_length_c    6.47623452672
_cell_angle_alpha    107.625055541
_cell_angle_beta    84.2729689676
_cell_angle_gamma    75.4908549429
_symmetry_space_group_name_H-M    'P 1'
loop_
_atom_site_label
_atom_site_type_symbol
_atom_site_fract_x
_atom_site_fract_y
_atom_site_fract_z
_atom_site_occupancy
H4   H   0.794543244615781   0.232310004707173   0.442551899283650   1.0
H5   H   0.569917985442913   0.581158101092264   0.685222291034734   1.0
H6   H   0.794158609356614   0.709526720849539   0.520350265413803   1.0
H7   H   0.316769373178509   0.358895029621721   0.357649681539840   1.0
H8   H   0.246260894697123   0.897281836388530   0.494358634381364   1.0
H9   H   0.506991377194957   0.638366191340175   0.240940309980537   1.0
C10   C   0.411475205266882   0.612166290287320   0.393156009617940   1.0
N12   N   0.656033871775790   0.528962401739960   0.521965602965643   1.0
