data_1
_audit_creation_method   'Generated by vasp2cif'
_cell_length_a    5.97109360525
_cell_length_b    3.54415890618
_cell_length_c    4.61040886095
_cell_angle_alpha    79.3107773307
_cell_angle_beta    94.590466041
_cell_angle_gamma    88.380770642
_symmetry_space_group_name_H-M    'P 1'
loop_
_atom_site_label
_atom_site_type_symbol
_atom_site_fract_x
_atom_site_fract_y
_atom_site_fract_z
_atom_site_occupancy
H4   H   0.369116212761654   0.995019622277155   0.285693867878742   1.0
H5   H   0.629615550631790   0.025722322284317   0.445983190898879   1.0
H6   H   0.510215335355262   0.396232058624598   0.213022661562931   1.0
H7   H   0.352984923330815   0.072664418025340   0.793701916866347   1.0
H8   H   0.501355148446414   0.498640157052485   0.713139782240177   1.0
H9   H   0.222556874872353   0.476516053144998   0.544899741473252   1.0
C10   C   0.379524332513547   0.318551100602335   0.626418786043800   1.0
N12   N   0.476536843027652   0.171074575686710   0.377593657194886   1.0
