data_1
_audit_creation_method   'Generated by vasp2cif'
_cell_length_a    7.00066474403
_cell_length_b    4.16807348149
_cell_length_c    6.22744153193
_cell_angle_alpha    43.866911048
_cell_angle_beta    115.622212256
_cell_angle_gamma    126.844029799
_symmetry_space_group_name_H-M    'P 1'
loop_
_atom_site_label
_atom_site_type_symbol
_atom_site_fract_x
_atom_site_fract_y
_atom_site_fract_z
_atom_site_occupancy
H4   H   0.646392889534908   0.723313509680530   0.542297747331965   1.0
H5   H   0.380406011642151   0.661803335342377   0.364215170074210   1.0
H6   H   0.395323281024190   0.257710028226135   0.753005021021330   1.0
H7   H   0.549868796570593   0.341127948577125   0.334042517714124   1.0
H8   H   0.564847251617444   0.904390658966157   0.745871173042126   1.0
H9   H   0.281459421506767   0.833875040712854   0.557034816212045   1.0
C10   C   0.466135870024907   0.108632178101132   0.547416225133048   1.0
N12   N   0.471963419581229   0.461744313301630   0.553454290781801   1.0
