data_1
_audit_creation_method   'Generated by vasp2cif'
_cell_length_a    4.67499015941
_cell_length_b    5.04501339356
_cell_length_c    5.07229887879
_cell_angle_alpha    100.879250546
_cell_angle_beta    96.4495677164
_cell_angle_gamma    95.9999870108
_symmetry_space_group_name_H-M    'P 1'
loop_
_atom_site_label
_atom_site_type_symbol
_atom_site_fract_x
_atom_site_fract_y
_atom_site_fract_z
_atom_site_occupancy
C1   C   0.308317761675042   0.281894484074897   0.327111504191784   1.0
H2   H   0.040171372523886   0.268438616919703   0.616727244417746   1.0
H3   H   0.035200406648521   0.571746964966685   0.318662862817334   1.0
H4   H   0.627252691160223   0.037160715592364   0.305545853320560   1.0
H5   H   0.622919560491127   0.262759891888301   0.079954359098082   1.0
H6   H   0.283102825515023   0.564156330351572   0.088338830164197   1.0
H7   H   0.286322062692783   0.033960435061317   0.601285147654174   1.0
N11   N   0.190619419082658   0.174964266674174   0.517593219688692   1.0
N12   N   0.188424217609210   0.476276935220326   0.225903758730397   1.0
N13   N   0.535598630361221   0.183635987346790   0.226924045060564   1.0
