data_1
_audit_creation_method   'Generated by vasp2cif'
_cell_length_a    5.26846923108
_cell_length_b    4.61977830679
_cell_length_c    4.88118589355
_cell_angle_alpha    85.2799198201
_cell_angle_beta    100.234023252
_cell_angle_gamma    82.5037904224
_symmetry_space_group_name_H-M    'P 1'
loop_
_atom_site_label
_atom_site_type_symbol
_atom_site_fract_x
_atom_site_fract_y
_atom_site_fract_z
_atom_site_occupancy
C1   C   0.765079170609035   0.293988191910692   0.637474686932421   1.0
H2   H   0.971175719932859   0.263325905923786   0.324887845430389   1.0
H3   H   0.016831540658743   0.597194545314949   0.653152182147039   1.0
H4   H   0.480871537238812   0.039238504612626   0.667413401613508   1.0
H5   H   0.514439512764653   0.288239510429442   0.911276254323049   1.0
H6   H   0.790584441774648   0.629685589911318   0.877614754210015   1.0
H7   H   0.754845345717101   0.010183338009128   0.337221638902591   1.0
N11   N   0.849917310661546   0.165180843970262   0.428913351362873   1.0
N12   N   0.868922267001722   0.522756555303296   0.732220907478073   1.0
N13   N   0.587864779723681   0.183179272799876   0.762269052934663   1.0
