data_1
_audit_creation_method   'Generated by vasp2cif'
_cell_length_a    8.08314598549
_cell_length_b    3.33110898724
_cell_length_c    4.71254879173
_cell_angle_alpha    80.7765829831
_cell_angle_beta    93.8619337874
_cell_angle_gamma    114.334473772
_symmetry_space_group_name_H-M    'P 1'
loop_
_atom_site_label
_atom_site_type_symbol
_atom_site_fract_x
_atom_site_fract_y
_atom_site_fract_z
_atom_site_occupancy
C1   C   0.468658214368098   0.200828305086297   0.538055352105538   1.0
H2   H   0.352822960981065   0.363404627079596   0.845642320642661   1.0
H3   H   0.584863310624897   0.596470126821352   0.845261264304092   1.0
H4   H   0.631138878539275   0.135614721297912   0.246756485511746   1.0
H5   H   0.744312962841754   0.435137493255134   0.520288058142441   1.0
H6   H   0.193173560590182   0.878803871873323   0.522223066774515   1.0
H7   H   0.305812660291615   0.808231953084700   0.247485765787985   1.0
N11   N   0.468871473159545   0.346766618367226   0.788644909163267   1.0
N12   N   0.311123308195782   0.971262693658502   0.414742117957751   1.0
N13   N   0.625955896385896   0.287974889618233   0.414070625790238   1.0
