data_1
_audit_creation_method   'Generated by vasp2cif'
_cell_length_a    4.36059074548
_cell_length_b    4.42575905727
_cell_length_c    4.41944917531
_cell_angle_alpha    105.447697896
_cell_angle_beta    92.9232435552
_cell_angle_gamma    87.2542376688
_symmetry_space_group_name_H-M    'P 1'
loop_
_atom_site_label
_atom_site_type_symbol
_atom_site_fract_x
_atom_site_fract_y
_atom_site_fract_z
_atom_site_occupancy
H4   H   0.345934361779427   0.486507358974848   0.288005359285208   1.0
H5   H   0.727272807526852   0.484204072347225   0.370378515618860   1.0
H6   H   0.495261739031683   0.783095201810120   0.574115429927005   1.0
H7   H   0.288976668177803   0.248837028057352   0.613909740233886   1.0
N9   N   0.514125909318807   0.547970833576471   0.465661317206653   1.0
