data_1
_audit_creation_method   'Generated by vasp2cif'
_cell_length_a    4.61317206146
_cell_length_b    3.88058056421
_cell_length_c    5.3763607679
_cell_angle_alpha    111.130826921
_cell_angle_beta    92.4751924916
_cell_angle_gamma    72.0809680748
_symmetry_space_group_name_H-M    'P 1'
loop_
_atom_site_label
_atom_site_type_symbol
_atom_site_fract_x
_atom_site_fract_y
_atom_site_fract_z
_atom_site_occupancy
H4   H   0.528992115230263   0.843139193090245   0.314776816751914   1.0
H5   H   0.626347126687965   0.980556728106576   0.631150587107162   1.0
H6   H   0.250900867406723   0.101103865615360   0.575718922364362   1.0
H7   H   0.271550196733193   0.492976304437152   0.412493290455475   1.0
N9   N   0.461983374537340   0.894051733685024   0.509662097138114   1.0
