data_1
_audit_creation_method   'Generated by vasp2cif'
_cell_length_a    4.76765451927
_cell_length_b    3.67432172975
_cell_length_c    5.29523801906
_cell_angle_alpha    76.352717774
_cell_angle_beta    84.3414982248
_cell_angle_gamma    66.4856936935
_symmetry_space_group_name_H-M    'P 1'
loop_
_atom_site_label
_atom_site_type_symbol
_atom_site_fract_x
_atom_site_fract_y
_atom_site_fract_z
_atom_site_occupancy
H4   H   0.449650665437372   0.562947231918248   0.526897262520651   1.0
H5   H   0.722229113411591   0.095916302457056   0.497726573644190   1.0
H6   H   0.733459697971366   0.313173913577245   0.745136466527519   1.0
H7   H   0.542780500876564   0.860019120834072   0.909522084933883   1.0
N9   N   0.593613044963679   0.278440820924435   0.624280765178077   1.0
