data_1
_audit_creation_method   'Generated by vasp2cif'
_cell_length_a    4.67203153635
_cell_length_b    3.37102397967
_cell_length_c    5.67291654772
_cell_angle_alpha    97.2131553934
_cell_angle_beta    77.2299174154
_cell_angle_gamma    109.247085394
_symmetry_space_group_name_H-M    'P 1'
loop_
_atom_site_label
_atom_site_type_symbol
_atom_site_fract_x
_atom_site_fract_y
_atom_site_fract_z
_atom_site_occupancy
H4   H   0.693484401222925   0.132791958655210   0.544313270638596   1.0
H5   H   0.374107886979321   0.947697568258843   0.763547626088757   1.0
H6   H   0.377050843112984   0.297521831147055   0.567904921008838   1.0
H7   H   0.174467024084226   0.777145658984552   0.371593082749809   1.0
N9   N   0.456746799397345   0.056254177329518   0.590868831471969   1.0
