data_1
_audit_creation_method   'Generated by vasp2cif'
_cell_length_a    5.66460790941
_cell_length_b    3.49297420398
_cell_length_c    4.72297261192
_cell_angle_alpha    73.3689403889
_cell_angle_beta    79.6598032685
_cell_angle_gamma    69.5283019285
_symmetry_space_group_name_H-M    'P 1'
loop_
_atom_site_label
_atom_site_type_symbol
_atom_site_fract_x
_atom_site_fract_y
_atom_site_fract_z
_atom_site_occupancy
H4   H   0.334807515338016   0.097836466712940   0.660883954498775   1.0
H5   H   0.550244302806828   0.362336143319759   0.488514579785543   1.0
H6   H   0.498824773069588   0.211092316469971   0.865923650953065   1.0
H7   H   0.743570442750302   0.602808118226278   0.867685500633573   1.0
N9   N   0.505073824945811   0.141520749511136   0.667417491813816   1.0
