data_1
_audit_creation_method   'Generated by vasp2cif'
_cell_length_a    5.15926860609
_cell_length_b    3.69667118202
_cell_length_c    4.78425893875
_cell_angle_alpha    112.248458063
_cell_angle_beta    93.2383324581
_cell_angle_gamma    76.8011883964
_symmetry_space_group_name_H-M    'P 1'
loop_
_atom_site_label
_atom_site_type_symbol
_atom_site_fract_x
_atom_site_fract_y
_atom_site_fract_z
_atom_site_occupancy
H4   H   0.238052727944923   0.112338518690738   0.507329096898055   1.0
H5   H   0.524193156398325   0.117974451438306   0.702515379114227   1.0
H6   H   0.274416133587871   0.927490785978023   0.786712356322733   1.0
H7   H   0.353221142131775   0.472314962564552   0.302409074729586   1.0
N9   N   0.372533589059443   0.967183078573742   0.620402932849771   1.0
