data_1
_audit_creation_method   'Generated by vasp2cif'
_cell_length_a    5.90807247936
_cell_length_b    3.45422190082
_cell_length_c    4.7177273921
_cell_angle_alpha    72.3984774401
_cell_angle_beta    90.8074537786
_cell_angle_gamma    66.8664014436
_symmetry_space_group_name_H-M    'P 1'
loop_
_atom_site_label
_atom_site_type_symbol
_atom_site_fract_x
_atom_site_fract_y
_atom_site_fract_z
_atom_site_occupancy
H4   H   0.499753831331724   0.712665700362628   0.174768825438299   1.0
H5   H   0.729848529009047   0.378801418064022   0.476922249591162   1.0
H6   H   0.430972385577384   0.332771474508206   0.742468968539519   1.0
H7   H   0.511763248723867   0.892162521163755   0.471117112422092   1.0
N9   N   0.548981435104110   0.617556067050607   0.403321777080187   1.0
