data_1
_audit_creation_method   'Generated by vasp2cif'
_cell_length_a    4.98934232891
_cell_length_b    4.46658247871
_cell_length_c    4.78655352951
_cell_angle_alpha    71.3281758062
_cell_angle_beta    83.5250004781
_cell_angle_gamma    87.3760097498
_symmetry_space_group_name_H-M    'P 1'
loop_
_atom_site_label
_atom_site_type_symbol
_atom_site_fract_x
_atom_site_fract_y
_atom_site_fract_z
_atom_site_occupancy
N5   N   0.147690030826716   0.702304172902465   0.823905444887572   1.0
N6   N   0.223393169912733   0.987431460777209   0.134629751999682   1.0
H7   H   0.335911930798204   0.606381632463417   0.837998021252552   1.0
H8   H   0.414500406817247   0.905758309600458   0.161610603101217   1.0
H9   H   0.019078130215476   0.634173874313916   0.706846406789801   1.0
H10   H   0.141814762172167   0.121501839583232   0.260096219117287   1.0
H11   H   0.861084913609844   0.968954947011348   0.983310880745428   1.0
C12   C   0.067046549384507   0.888162816838971   0.980132636767699   1.0
