data_1
_audit_creation_method   'Generated by vasp2cif'
_cell_length_a    4.56922541586
_cell_length_b    4.84417696575
_cell_length_c    5.22308061937
_cell_angle_alpha    102.319582872
_cell_angle_beta    101.536912794
_cell_angle_gamma    71.3883897611
_symmetry_space_group_name_H-M    'P 1'
loop_
_atom_site_label
_atom_site_type_symbol
_atom_site_fract_x
_atom_site_fract_y
_atom_site_fract_z
_atom_site_occupancy
N5   N   0.921801463245288   0.648232089597158   0.987688352506900   1.0
N6   N   0.205416779551982   0.881081562325861   0.677350126839855   1.0
H7   H   0.202219377399793   0.806321476582504   0.844933469779676   1.0
H8   H   0.983664132449711   0.009139287809980   0.626412845349115   1.0
H9   H   0.819905606062463   0.479084805376054   0.931248162805566   1.0
H10   H   0.349085230365752   0.013912446034645   0.711188569038136   1.0
H11   H   0.838538236312480   0.081039516061153   0.190802539247684   1.0
C12   C   0.776544216674452   0.877870201692055   0.117865543344095   1.0
