data_1
_audit_creation_method   'Generated by vasp2cif'
_cell_length_a    5.4729951532
_cell_length_b    5.42753598502
_cell_length_c    5.48063109371
_cell_angle_alpha    91.7728291107
_cell_angle_beta    88.7412235074
_cell_angle_gamma    88.3213120928
_symmetry_space_group_name_H-M    'P 1'
loop_
_atom_site_label
_atom_site_type_symbol
_atom_site_fract_x
_atom_site_fract_y
_atom_site_fract_z
_atom_site_occupancy
C1   C   0.206949217635021   0.435461150095065   0.472489719822121   1.0
C2   C   0.628321744270139   0.371367127124053   0.310621404862097   1.0
C3   C   0.556409598401274   0.519778929160886   0.735398083125482   1.0
C4   C   0.462862251602239   0.791993669540062   0.395678015378266   1.0
H5   H   0.647165785105024   0.856360628445785   0.415079322884886   1.0
H6   H   0.407203893975790   0.793624143672808   0.207391366406981   1.0
H7   H   0.145077612200922   0.452513489633873   0.287161074627939   1.0
H8   H   0.519407860007185   0.297449712332266   0.164163124191241   1.0
H9   H   0.438795999422254   0.638718116680366   0.852744600358605   1.0
H10   H   0.742282644573642   0.582465817821898   0.735033327890001   1.0
H11   H   0.770944374206366   0.485256584042382   0.238636568980681   1.0
H12   H   0.335331241488156   0.900324906883256   0.512196437464127   1.0
H13   H   0.547569568611166   0.329736877976927   0.789222195196949   1.0
H14   H   0.211376900969093   0.245478478521051   0.526639028049722   1.0
H15   H   0.706986909819925   0.223582276540768   0.415032919562094   1.0
H16   H   0.093511655517716   0.548324693639650   0.599240707489521   1.0
N20   N   0.462670768560912   0.530433499412062   0.479464970149614   1.0
