data_1
_audit_creation_method   'Generated by vasp2cif'
_cell_length_a    4.74006152805
_cell_length_b    4.35343983909
_cell_length_c    4.4060543076
_cell_angle_alpha    87.8771327321
_cell_angle_beta    73.5754277189
_cell_angle_gamma    89.1115868149
_symmetry_space_group_name_H-M    'P 1'
loop_
_atom_site_label
_atom_site_type_symbol
_atom_site_fract_x
_atom_site_fract_y
_atom_site_fract_z
_atom_site_occupancy
H4   H   0.279826468079335   0.338751843556430   0.519684754660275   1.0
H5   H   0.379711881062555   0.687881485674311   0.373824716092102   1.0
H6   H   0.545366804442416   0.329634534551147   0.830563889241375   1.0
H7   H   0.816092116048551   0.540186939164613   0.583896088225643   1.0
H8   H   0.511133441627557   0.711241289533483   0.810553827736747   1.0
N10   N   0.456551063891013   0.477485232155068   0.424579450337923   1.0
N11   N   0.593518828209348   0.520196551775840   0.678879011497131   1.0
