data_1
_audit_creation_method   'Generated by vasp2cif'
_cell_length_a    3.46942578258
_cell_length_b    4.81938397316
_cell_length_c    6.20674358465
_cell_angle_alpha    88.4334305971
_cell_angle_beta    114.218539055
_cell_angle_gamma    109.704736011
_symmetry_space_group_name_H-M    'P 1'
loop_
_atom_site_label
_atom_site_type_symbol
_atom_site_fract_x
_atom_site_fract_y
_atom_site_fract_z
_atom_site_occupancy
H4   H   0.069736161166183   0.515656906352788   0.407008775490837   1.0
H5   H   0.398817391975641   0.771396506670662   0.636013513544746   1.0
H6   H   0.760083409198387   0.450485315458877   0.673777737587983   1.0
H7   H   0.992803536490023   0.180719329192676   0.687172324957928   1.0
H8   H   0.278817087977309   0.478611629900286   0.895991594754292   1.0
N10   N   0.300666960744266   0.551329149577668   0.580842789319391   1.0
N11   N   0.059443689879700   0.402928665527583   0.720306985830689   1.0
