data_1
_audit_creation_method   'Generated by vasp2cif'
_cell_length_a    6.28550876792
_cell_length_b    4.61960722955
_cell_length_c    4.41806705018
_cell_angle_alpha    91.6482471848
_cell_angle_beta    45.1505351677
_cell_angle_gamma    101.957011665
_symmetry_space_group_name_H-M    'P 1'
loop_
_atom_site_label
_atom_site_type_symbol
_atom_site_fract_x
_atom_site_fract_y
_atom_site_fract_z
_atom_site_occupancy
H4   H   0.491106370820596   0.717822496228465   0.188010883428561   1.0
H5   H   0.477591522241916   0.677122879569623   0.831568706680820   1.0
H6   H   0.651328870770492   0.285581094356488   0.066823827114682   1.0
H7   H   0.634828591918499   0.239525426731738   0.707858519446091   1.0
H8   H   0.896758153587740   0.532413553692031   0.605887800481568   1.0
N10   N   0.435967653995497   0.562135065572292   0.069721074891817   1.0
N11   N   0.673155140748051   0.395759509380852   0.844926172024728   1.0
