data_1
_audit_creation_method   'Generated by vasp2cif'
_cell_length_a    3.43369057755
_cell_length_b    4.86544640737
_cell_length_c    6.22913839809
_cell_angle_alpha    74.7098800334
_cell_angle_beta    113.595220513
_cell_angle_gamma    111.076730294
_symmetry_space_group_name_H-M    'P 1'
loop_
_atom_site_label
_atom_site_type_symbol
_atom_site_fract_x
_atom_site_fract_y
_atom_site_fract_z
_atom_site_occupancy
H4   H   0.433114938991942   0.500356156905269   0.582226530415902   1.0
H5   H   0.393602944603145   0.767932609591575   0.358866245778657   1.0
H6   H   0.706537796845346   0.442853362925625   0.318958911170768   1.0
H7   H   0.195482033720957   0.177000245038066   0.298803744320729   1.0
H8   H   0.227916524666540   0.481918423726746   0.095822091572273   1.0
N10   N   0.258103884334581   0.548014917362529   0.407372105375075   1.0
N11   N   0.357239579759657   0.398445228770314   0.270108344009870   1.0
