data_1
_audit_creation_method   'Generated by vasp2cif'
_cell_length_a    4.80744423158
_cell_length_b    5.2437135686
_cell_length_c    3.86597028614
_cell_angle_alpha    75.8202861173
_cell_angle_beta    67.4122681929
_cell_angle_gamma    85.7914575142
_symmetry_space_group_name_H-M    'P 1'
loop_
_atom_site_label
_atom_site_type_symbol
_atom_site_fract_x
_atom_site_fract_y
_atom_site_fract_z
_atom_site_occupancy
H4   H   0.610360779157119   0.496415773648401   0.778460605737934   1.0
H5   H   0.356954738178111   0.735088493126355   0.810324229685669   1.0
H6   H   0.143199807253289   0.341966787024127   0.236570732286779   1.0
H7   H   0.405041150659422   0.330848644948261   0.436178783660296   1.0
H8   H   0.158181900041519   0.572017047873118   0.471496955549455   1.0
N10   N   0.488029248765663   0.622244348313927   0.940783069957789   1.0
N11   N   0.284297366839496   0.453378906042232   0.294242396016514   1.0
