data_1
_audit_creation_method   'Generated by vasp2cif'
_cell_length_a    6.33976675233
_cell_length_b    3.50840466518
_cell_length_c    4.73711442931
_cell_angle_alpha    110.292684136
_cell_angle_beta    104.7760614
_cell_angle_gamma    63.4796667702
_symmetry_space_group_name_H-M    'P 1'
loop_
_atom_site_label
_atom_site_type_symbol
_atom_site_fract_x
_atom_site_fract_y
_atom_site_fract_z
_atom_site_occupancy
H4   H   0.603772280674193   0.561623396204936   0.829800102720519   1.0
H5   H   0.402750725084296   0.502960832508613   0.537998368708692   1.0
H6   H   0.874122617075436   0.305963701515751   0.463814536700291   1.0
H7   H   0.630212960086297   0.366883429556488   0.216212355101696   1.0
H8   H   0.650882181143224   0.824670801721020   0.499753292641216   1.0
N10   N   0.579342543465607   0.374206703074286   0.615089391097762   1.0
N11   N   0.692805269805525   0.479505120633924   0.437325937890655   1.0
