data_1
_audit_creation_method   'Generated by vasp2cif'
_cell_length_a    6.02344572625
_cell_length_b    3.30781997514
_cell_length_c    4.54100677009
_cell_angle_alpha    80.5695407672
_cell_angle_beta    101.992245639
_cell_angle_gamma    88.5834724704
_symmetry_space_group_name_H-M    'P 1'
loop_
_atom_site_label
_atom_site_type_symbol
_atom_site_fract_x
_atom_site_fract_y
_atom_site_fract_z
_atom_site_occupancy
H4   H   0.481067830135835   0.494645157573686   0.672211590118891   1.0
H5   H   0.674903324470151   0.824940417988692   0.740095090172758   1.0
H6   H   0.837594785403326   0.351721190361154   0.526805189423840   1.0
H7   H   0.595502144052666   0.364419464877216   0.257208235620695   1.0
H8   H   0.760523662760718   0.763515486936051   0.253955688994424   1.0
N10   N   0.562663453664250   0.726682923875508   0.568847258519867   1.0
N11   N   0.699982908076663   0.534897428290613   0.393531176309786   1.0
