data_1
_audit_creation_method   'Generated by vasp2cif'
_cell_length_a    5.22066806296
_cell_length_b    3.4834389383
_cell_length_c    5.20021074826
_cell_angle_alpha    82.2084396093
_cell_angle_beta    91.0029096394
_cell_angle_gamma    72.2297491792
_symmetry_space_group_name_H-M    'P 1'
loop_
_atom_site_label
_atom_site_type_symbol
_atom_site_fract_x
_atom_site_fract_y
_atom_site_fract_z
_atom_site_occupancy
H4   H   0.240542454507882   0.058989163043549   0.537527381259814   1.0
H5   H   0.462955353647075   0.933081461774513   0.791692373149985   1.0
H6   H   0.790586899777708   0.978544824018499   0.487097149271207   1.0
H7   H   0.551243068145403   0.153345824740555   0.259846504862914   1.0
H8   H   0.546186500500546   0.432711236675153   0.508509924708406   1.0
N10   N   0.436483980105379   0.906531828610746   0.600851522534185   1.0
N11   N   0.590259342646661   0.137546872699033   0.455841884361028   1.0
