data_1
_audit_creation_method   'Generated by vasp2cif'
_cell_length_a    5.13157173042
_cell_length_b    4.74932341534
_cell_length_c    3.49726940018
_cell_angle_alpha    69.0234743467
_cell_angle_beta    110.696756749
_cell_angle_gamma    96.7668425915
_symmetry_space_group_name_H-M    'P 1'
loop_
_atom_site_label
_atom_site_type_symbol
_atom_site_fract_x
_atom_site_fract_y
_atom_site_fract_z
_atom_site_occupancy
N5   N   0.398289938279774   0.479557745400783   0.743087485543747   1.0
H6   H   0.223675891012029   0.526811166705052   0.473456396599879   1.0
H7   H   0.355115517923530   0.303439943408797   0.987316497481132   1.0
H8   H   0.557782376453744   0.412446831894854   0.679279111808547   1.0
H9   H   0.456534930237147   0.663842788789331   0.842158103508524   1.0
