data_1
_audit_creation_method   'Generated by vasp2cif'
_cell_length_a    4.22373837671
_cell_length_b    4.35602996198
_cell_length_c    4.41327359265
_cell_angle_alpha    80.3541960457
_cell_angle_beta    82.9717450279
_cell_angle_gamma    81.9256827881
_symmetry_space_group_name_H-M    'P 1'
loop_
_atom_site_label
_atom_site_type_symbol
_atom_site_fract_x
_atom_site_fract_y
_atom_site_fract_z
_atom_site_occupancy
N5   N   0.498421226318551   0.501382802801849   0.541338355136031   1.0
H6   H   0.349782153947319   0.708120572597937   0.557319799086765   1.0
H7   H   0.362147536820694   0.317316996662526   0.587331941886996   1.0
H8   H   0.618933733538282   0.505466932296494   0.323809107034840   1.0
H9   H   0.661418179321364   0.471871930126731   0.703055171288256   1.0
