data_1
_audit_creation_method   'Generated by vasp2cif'
_cell_length_a    4.57565279471
_cell_length_b    5.87885635576
_cell_length_c    5.31133842515
_cell_angle_alpha    85.651369303
_cell_angle_beta    89.0304480478
_cell_angle_gamma    100.228805147
_symmetry_space_group_name_H-M    'P 1'
loop_
_atom_site_label
_atom_site_type_symbol
_atom_site_fract_x
_atom_site_fract_y
_atom_site_fract_z
_atom_site_occupancy
C1   C   0.646416052487268   0.312430361946660   0.649602586663164   1.0
C2   C   0.413596461743054   0.662811085162453   0.653117440912318   1.0
C3   C   0.392045109177467   0.441452340598360   0.277713429285505   1.0
H4   H   0.766482454134831   0.371079096282621   0.813628835948009   1.0
H5   H   0.556364939959316   0.724678173646424   0.802250597908007   1.0
H6   H   0.508487301733318   0.330708457177131   0.175207610898553   1.0
H7   H   0.358325078940098   0.592466887001436   0.162477819876983   1.0
H8   H   0.360719834927629   0.805543612239205   0.531703361390228   1.0
H9   H   0.766393102774643   0.625970375555724   0.427612076991679   1.0
H10   H   0.181678798339313   0.344462283998603   0.356031448335443   1.0
H11   H   0.437494180832701   0.199843835890476   0.706978328526837   1.0
H12   H   0.212283458486119   0.552701155625734   0.732760316410882   1.0
H13   H   0.774023506653890   0.218622587038489   0.533486598587267   1.0
N17   N   0.574005101085795   0.518929088049873   0.496743742756671   1.0
