data_1
_audit_creation_method   'Generated by vasp2cif'
_cell_length_a    4.89181595353
_cell_length_b    5.05130503946
_cell_length_c    5.83526248959
_cell_angle_alpha    89.2967595394
_cell_angle_beta    93.0594424194
_cell_angle_gamma    105.128924462
_symmetry_space_group_name_H-M    'P 1'
loop_
_atom_site_label
_atom_site_type_symbol
_atom_site_fract_x
_atom_site_fract_y
_atom_site_fract_z
_atom_site_occupancy
C1   C   0.627383277769443   0.266050757757281   0.518166328729484   1.0
C2   C   0.349434844319566   0.564735329727762   0.671705450966091   1.0
C3   C   0.422214851690240   0.561881536952624   0.260539710268378   1.0
H4   H   0.701003711630841   0.244686612669753   0.694084494568562   1.0
H5   H   0.454553923309271   0.572895360486879   0.839022782817656   1.0
H6   H   0.536433675916780   0.478061779236765   0.139069505491315   1.0
H7   H   0.435676286150120   0.775878531722410   0.228023710327136   1.0
H8   H   0.282334544112515   0.749461995709196   0.635725906782105   1.0
H9   H   0.736563493229618   0.689771257949300   0.510374836255223   1.0
H10   H   0.201169519925971   0.447697066400846   0.256600110370753   1.0
H11   H   0.436205814139081   0.106879273749528   0.473159893939949   1.0
H12   H   0.169728273374709   0.386199029419492   0.656742146339629   1.0
H13   H   0.789005632822160   0.265678558127206   0.398188517904211   1.0
N17   N   0.551105446425276   0.534469799893184   0.495453411064776   1.0
