data_1
_audit_creation_method   'Generated by vasp2cif'
_cell_length_a    5.32256648003
_cell_length_b    5.35462909361
_cell_length_c    5.0861205345
_cell_angle_alpha    94.8206650399
_cell_angle_beta    95.129630196
_cell_angle_gamma    103.190567487
_symmetry_space_group_name_H-M    'P 1'
loop_
_atom_site_label
_atom_site_type_symbol
_atom_site_fract_x
_atom_site_fract_y
_atom_site_fract_z
_atom_site_occupancy
C1   C   0.393204948575288   0.375165786767198   0.728430995468855   1.0
C2   C   0.367156721244363   0.647715143860282   0.370173222757018   1.0
C3   C   0.674790770701208   0.354403746738463   0.377808999557431   1.0
H4   H   0.301594181683100   0.502748953232199   0.841171927745023   1.0
H5   H   0.291931453154071   0.773724397394062   0.504627107146689   1.0
H6   H   0.806966496887618   0.290146334830645   0.517007555387096   1.0
H7   H   0.777534623470224   0.461902145679446   0.232707113933174   1.0
H8   H   0.475523772159185   0.754108975529327   0.227899654942441   1.0
H9   H   0.683976605359724   0.670478299541422   0.638783215104112   1.0
H10   H   0.528701537285478   0.189100406639568   0.280412266756045   1.0
H11   H   0.246475000515858   0.219555010475126   0.614191469389063   1.0
H12   H   0.208075306622568   0.496955425246007   0.268602804025598   1.0
H13   H   0.525720331369932   0.296265906876712   0.851396377599585   1.0
N17   N   0.542613450569029   0.525026167099483   0.533889454788792   1.0
