data_1
_audit_creation_method   'Generated by vasp2cif'
_cell_length_a    5.27594013269
_cell_length_b    5.37325402576
_cell_length_c    5.29036474112
_cell_angle_alpha    96.9632606314
_cell_angle_beta    99.39816621
_cell_angle_gamma    96.5146004006
_symmetry_space_group_name_H-M    'P 1'
loop_
_atom_site_label
_atom_site_type_symbol
_atom_site_fract_x
_atom_site_fract_y
_atom_site_fract_z
_atom_site_occupancy
C1   C   0.608414902583860   0.684298467058049   0.347522226870438   1.0
C2   C   0.290423390246055   0.710719875165360   0.644163346696914   1.0
C3   C   0.573048553666908   0.374716955845727   0.653971259803136   1.0
H4   H   0.701471823133033   0.548798378746213   0.239028531207111   1.0
H5   H   0.188305936503355   0.822238546197795   0.515141860202306   1.0
H6   H   0.656983421586368   0.244932209179005   0.529003787294478   1.0
H7   H   0.434520920931604   0.273548878437481   0.747956471886162   1.0
H8   H   0.155118176205931   0.592727271757191   0.727833200530689   1.0
H9   H   0.295533840235194   0.424561009007270   0.353473999618579   1.0
H10   H   0.723615254073962   0.494703649450500   0.795489197582278   1.0
H11   H   0.492210717107433   0.785990696865397   0.218329670404813   1.0
H12   H   0.430613003143144   0.832320810618704   0.794883149312682   1.0
H13   H   0.750465816937755   0.815627416444343   0.487720936883221   1.0
N17   N   0.433112780459460   0.542150091579565   0.490882542546757   1.0
