data_1
_audit_creation_method   'Generated by vasp2cif'
_cell_length_a    4.72949200811
_cell_length_b    5.75042951212
_cell_length_c    5.23866169073
_cell_angle_alpha    92.0186372337
_cell_angle_beta    78.8955258643
_cell_angle_gamma    90.0400062526
_symmetry_space_group_name_H-M    'P 1'
loop_
_atom_site_label
_atom_site_type_symbol
_atom_site_fract_x
_atom_site_fract_y
_atom_site_fract_z
_atom_site_occupancy
C1   C   0.514298832398781   0.559070499762291   0.324185710253555   1.0
C2   C   0.636075863613876   0.838293468436124   0.659472255040461   1.0
C3   C   0.803341993724398   0.432424172058071   0.640301862084924   1.0
H4   H   0.344628803668310   0.677454909253022   0.297665965657780   1.0
H5   H   0.860773164121661   0.867321585511574   0.573364713485457   1.0
H6   H   0.733852193614355   0.254777880039812   0.623817002154126   1.0
H7   H   0.850120312856930   0.471713850769610   0.830970452392189   1.0
H8   H   0.490749443549367   0.951098485342887   0.584267770258048   1.0
H9   H   0.381960445047939   0.545908316016436   0.726887431909995   1.0
H10   H   0.991969870534550   0.466662439455733   0.492783934466336   1.0
H11   H   0.714394815218033   0.603291977414444   0.194880922404108   1.0
H12   H   0.602780832585209   0.861857050322665   0.868933671532152   1.0
H13   H   0.457218432027328   0.378972224957484   0.292150632869435   1.0
N17   N   0.566093580515727   0.590476141770689   0.597952525620927   1.0
