data_1
_audit_creation_method   'Generated by vasp2cif'
_cell_length_a    5.4961135337
_cell_length_b    4.1200311708
_cell_length_c    6.40999687539
_cell_angle_alpha    92.809355005
_cell_angle_beta    82.1818071952
_cell_angle_gamma    82.145282313
_symmetry_space_group_name_H-M    'P 1'
loop_
_atom_site_label
_atom_site_type_symbol
_atom_site_fract_x
_atom_site_fract_y
_atom_site_fract_z
_atom_site_occupancy
C1   C   0.307087611270383   0.550053446378314   0.434785791811947   1.0
C2   C   0.686681855659103   0.781470493618542   0.490014528402931   1.0
C3   C   0.493265893807426   0.481182078383512   0.774504597402512   1.0
H4   H   0.239394989478207   0.750258909900481   0.343798550221003   1.0
H5   H   0.645799770197520   0.974845100576808   0.386837010073542   1.0
H6   H   0.335156168333150   0.356134748353519   0.817811731006969   1.0
H7   H   0.520234617019341   0.639157799273974   0.907324787759904   1.0
H8   H   0.794015825519374   0.861464091988587   0.607429599462954   1.0
H9   H   0.329803615063781   0.904616982524750   0.660685123731028   1.0
H10   H   0.661434000443371   0.312376589410817   0.723419806258207   1.0
H11   H   0.431390043858073   0.365130688478331   0.330530935590374   1.0
H12   H   0.786697429515087   0.561435347338254   0.399774912436058   1.0
H13   H   0.154919611240949   0.444717316879050   0.518100771799695   1.0
N17   N   0.446077720180952   0.695637952177862   0.595607669223341   1.0
