data_1
_audit_creation_method   'Generated by vasp2cif'
_cell_length_a    5.61445078849
_cell_length_b    4.84346867307
_cell_length_c    4.65868181419
_cell_angle_alpha    89.2319993488
_cell_angle_beta    83.8825735212
_cell_angle_gamma    96.8858436295
_symmetry_space_group_name_H-M    'P 1'
loop_
_atom_site_label
_atom_site_type_symbol
_atom_site_fract_x
_atom_site_fract_y
_atom_site_fract_z
_atom_site_occupancy
H4   H   0.591888826966762   0.980746892292295   0.471413035756530   1.0
H5   H   0.613363806175209   0.433625668615518   0.710676216145387   1.0
H6   H   0.453296360822698   0.858196492759501   0.788487464447295   1.0
H7   H   0.483021076108202   0.453132332154108   0.091781939342468   1.0
H8   H   0.116954854449648   0.641741415681542   0.559448599285318   1.0
H9   H   0.246500638882502   0.836905400791090   0.242629599492091   1.0
H10   H   0.789967403855477   0.604978696779239   0.405325650829031   1.0
H11   H   0.314396966871504   0.247358899906334   0.376185565504226   1.0
C12   C   0.277284141362311   0.694016124132989   0.410305477598829   1.0
C13   C   0.610051279221352   0.551773402144364   0.512792372363843   1.0
C14   C   0.414400659782166   0.448314543577156   0.317903808619001   1.0
N16   N   0.486346835622975   0.813656106485696   0.574726712509982   1.0
