data_1
_audit_creation_method   'Generated by vasp2cif'
_cell_length_a    4.72260016439
_cell_length_b    4.74996260814
_cell_length_c    5.82238221177
_cell_angle_alpha    90.0652694036
_cell_angle_beta    89.1248297525
_cell_angle_gamma    99.2535529962
_symmetry_space_group_name_H-M    'P 1'
loop_
_atom_site_label
_atom_site_type_symbol
_atom_site_fract_x
_atom_site_fract_y
_atom_site_fract_z
_atom_site_occupancy
H4   H   0.292985257992271   0.573813824736277   0.218059498817716   1.0
H5   H   0.812478615371404   0.404480332767498   0.358835015249674   1.0
H6   H   0.586166154937054   0.802427927838586   0.284253125912990   1.0
H7   H   0.517468542917712   0.371081796245228   0.819264745083061   1.0
H8   H   0.332960947108539   0.890726587605236   0.630719406246719   1.0
H9   H   0.123255186836332   0.546421864571116   0.602950754710378   1.0
H10   H   0.467696492965303   0.195278617577415   0.405124977016584   1.0
H11   H   0.759857293533258   0.670634672512627   0.722486149216287   1.0
C12   C   0.335302337548420   0.670791032302859   0.585348878422245   1.0
C13   C   0.602687392941867   0.397709800021438   0.435840299529282   1.0
C14   C   0.571605618815127   0.519130674994820   0.678957444792204   1.0
N16   N   0.445794943144548   0.629271465281228   0.342358864436683   1.0
