data_1
_audit_creation_method   'Generated by vasp2cif'
_cell_length_a    4.80443362021
_cell_length_b    5.51501318357
_cell_length_c    4.7975878376
_cell_angle_alpha    82.854544149
_cell_angle_beta    87.0556593209
_cell_angle_gamma    98.0880056457
_symmetry_space_group_name_H-M    'P 1'
loop_
_atom_site_label
_atom_site_type_symbol
_atom_site_fract_x
_atom_site_fract_y
_atom_site_fract_z
_atom_site_occupancy
H4   H   0.312796928710718   0.817707212071426   0.764000181848161   1.0
H5   H   0.348459263188509   0.700316238246351   0.205534411205008   1.0
H6   H   0.574619200131231   0.932467609820854   0.519977814169053   1.0
H7   H   0.486123724405949   0.245704994257728   0.547989997690955   1.0
H8   H   0.858207486771420   0.675504760325694   0.730505328858030   1.0
H9   H   0.563679117767947   0.491502854758430   0.931398628954099   1.0
H10   H   0.130828144448955   0.512320108556175   0.485969011317110   1.0
H11   H   0.737710104474473   0.453437354955355   0.318887401609572   1.0
C12   C   0.644810671801068   0.586072121285518   0.727584584492362   1.0
C13   C   0.340746728572398   0.601021952741384   0.413724461894951   1.0
C14   C   0.569677876196643   0.437717866071047   0.483064713050915   1.0
N16   N   0.455597814036338   0.773630041382823   0.620304239959275   1.0
