data_1
_audit_creation_method   'Generated by vasp2cif'
_cell_length_a    6.92408151366
_cell_length_b    4.5656276023
_cell_length_c    4.41354291117
_cell_angle_alpha    105.794712886
_cell_angle_beta    78.615619602
_cell_angle_gamma    87.6655974265
_symmetry_space_group_name_H-M    'P 1'
loop_
_atom_site_label
_atom_site_type_symbol
_atom_site_fract_x
_atom_site_fract_y
_atom_site_fract_z
_atom_site_occupancy
H4   H   0.681890747576062   0.084462801001472   0.013309434662119   1.0
H5   H   0.260653189607517   0.217695688863841   0.026562769761732   1.0
H6   H   0.369762280866198   0.868282278986342   0.950185241457795   1.0
H7   H   0.486736426205027   0.859276804105491   0.400511019518696   1.0
H8   H   0.314518783586777   0.191091753249687   0.503494587292501   1.0
H9   H   0.592038186382922   0.516114408298961   0.631782987373654   1.0
H10   H   0.757839974705981   0.178617880023225   0.484121748769219   1.0
H11   H   0.531851273033219   0.440822479623662   0.169435474121073   1.0
C12   C   0.440546751487084   0.087059866714846   0.561800101297834   1.0
C13   C   0.572809908900311   0.235810408791650   0.971658019806974   1.0
C14   C   0.614213000407396   0.279675447679978   0.633893613998737   1.0
N16   N   0.388841783641702   0.077822070817319   0.909287248482386   1.0
