data_1
_audit_creation_method   'Generated by vasp2cif'
_cell_length_a    6.92701125009
_cell_length_b    4.42960628174
_cell_length_c    4.42837619193
_cell_angle_alpha    102.72830045
_cell_angle_beta    81.9481111966
_cell_angle_gamma    87.4519689059
_symmetry_space_group_name_H-M    'P 1'
loop_
_atom_site_label
_atom_site_type_symbol
_atom_site_fract_x
_atom_site_fract_y
_atom_site_fract_z
_atom_site_occupancy
H4   H   0.434398007297865   0.901508503024132   0.891469571706892   1.0
H5   H   0.598958908767997   0.482170912229435   0.109021852708686   1.0
H6   H   0.710376372158208   0.133463430826659   0.032730526098526   1.0
H7   H   0.667902389396147   0.115007812084151   0.545600593598408   1.0
H8   H   0.505483663077086   0.457877805469671   0.641078330836429   1.0
H9   H   0.226614496294282   0.145034651744531   0.550710572442405   1.0
H10   H   0.382142254089629   0.800573391371849   0.417679074588889   1.0
H11   H   0.291429549088995   0.262414734734783   0.030078587032151   1.0
C12   C   0.542483810831861   0.231702683421638   0.484792970744344   1.0
C13   C   0.399182076697812   0.104462342748903   0.079919621099833   1.0
C14   C   0.364612753523232   0.043560113708381   0.410122278582406   1.0
N16   N   0.584112513180408   0.263550922136453   0.147993249429554   1.0
