data_1
_audit_creation_method   'Generated by vasp2cif'
_cell_length_a    6.31819994548
_cell_length_b    4.85053235611
_cell_length_c    4.45124624983
_cell_angle_alpha    87.2370996939
_cell_angle_beta    96.8941576923
_cell_angle_gamma    80.3779358661
_symmetry_space_group_name_H-M    'P 1'
loop_
_atom_site_label
_atom_site_type_symbol
_atom_site_fract_x
_atom_site_fract_y
_atom_site_fract_z
_atom_site_occupancy
H4   H   0.719874230344416   0.170932524431031   0.113777685333325   1.0
H5   H   0.288578420825665   0.045656960551092   0.957954464989839   1.0
H6   H   0.529247367984503   0.820961649354636   0.987706540597394   1.0
H7   H   0.539557853502210   0.909631321648973   0.465864312810815   1.0
H8   H   0.283992198544802   0.141853398416274   0.447348350876766   1.0
H9   H   0.479391092853469   0.529063708226893   0.558689482377105   1.0
H10   H   0.732587198209821   0.301002840205818   0.576161004101408   1.0
H11   H   0.466159661496917   0.403075828437437   0.095410700399839   1.0
C12   C   0.448056517860436   0.083894705583205   0.563892188184191   1.0
C13   C   0.565453345968528   0.250636072148907   0.979950519916343   1.0
C14   C   0.571375906715872   0.325739625026074   0.642965122391651   1.0
N16   N   0.442761075736143   0.011479160475410   0.899372057675741   1.0
