data_1
_audit_creation_method   'Generated by vasp2cif'
_cell_length_a    6.72603192466
_cell_length_b    3.72912596131
_cell_length_c    5.47233122857
_cell_angle_alpha    70.3149735806
_cell_angle_beta    96.1914689214
_cell_angle_gamma    103.019224964
_symmetry_space_group_name_H-M    'P 1'
loop_
_atom_site_label
_atom_site_type_symbol
_atom_site_fract_x
_atom_site_fract_y
_atom_site_fract_z
_atom_site_occupancy
H4   H   0.538842801462607   0.395345822959115   0.865205740800015   1.0
H5   H   0.272858646426570   0.633434583850423   0.560020010793139   1.0
H6   H   0.281989054160505   0.969338174160704   0.700519926501720   1.0
H7   H   0.527443063966835   0.044350461443059   0.272965513455077   1.0
H8   H   0.509191890664653   0.414565742641656   0.397837203268132   1.0
H9   H   0.788456275315163   0.225446742657049   0.724695679501359   1.0
H10   H   0.809936685536243   0.876914925641742   0.582432267394104   1.0
H11   H   0.519475099432434   0.742611124764458   0.009920512573501   1.0
C12   C   0.532167788243846   0.120922206052427   0.447574783579640   1.0
C13   C   0.538983399429725   0.698428271024468   0.829799784682194   1.0
C14   C   0.703272093371524   0.998765769402603   0.649723032073481   1.0
N16   N   0.370563743984945   0.834563209117171   0.633046050147499   1.0
