data_1
_audit_creation_method   'Generated by vasp2cif'
_cell_length_a    5.02999486446
_cell_length_b    3.80439882934
_cell_length_c    7.11714258252
_cell_angle_alpha    105.772160859
_cell_angle_beta    87.3673361118
_cell_angle_gamma    106.133730492
_symmetry_space_group_name_H-M    'P 1'
loop_
_atom_site_label
_atom_site_type_symbol
_atom_site_fract_x
_atom_site_fract_y
_atom_site_fract_z
_atom_site_occupancy
H4   H   0.161133279145048   0.472261692774488   0.535951938885425   1.0
H5   H   0.498304145556183   0.665589532882159   0.306359585358919   1.0
H6   H   0.350947668599709   0.992754789972210   0.291154265619198   1.0
H7   H   0.768521737705591   0.098187051552898   0.589741039506109   1.0
H8   H   0.636004743688872   0.448106776560323   0.539050554567773   1.0
H9   H   0.254650014430794   0.308621050279619   0.759437318432525   1.0
H10   H   0.398404958804825   0.979484655486893   0.820334641630829   1.0
H11   H   0.990860663404902   0.780496009445102   0.481090511136358   1.0
C12   C   0.583210622981952   0.169169268014059   0.562644228389587   1.0
C13   C   0.183911218071678   0.758165054031409   0.529279624460308   1.0
C14   C   0.346321944448888   0.076295140153690   0.700879881157483   1.0
N16   N   0.410947346918412   0.871820531330449   0.389220420869918   1.0
