data_1
_audit_creation_method   'Generated by vasp2cif'
_cell_length_a    5.0776058583
_cell_length_b    3.78071928208
_cell_length_c    7.07438509916
_cell_angle_alpha    74.9037846999
_cell_angle_beta    95.5598855233
_cell_angle_gamma    106.285813066
_symmetry_space_group_name_H-M    'P 1'
loop_
_atom_site_label
_atom_site_type_symbol
_atom_site_fract_x
_atom_site_fract_y
_atom_site_fract_z
_atom_site_occupancy
H4   H   0.169936317600076   0.853980836564006   0.522062116616397   1.0
H5   H   0.504572787014190   0.274471402829107   0.287525582046648   1.0
H6   H   0.359640729491147   0.619504281361884   0.272401357589970   1.0
H7   H   0.779167008876847   0.435762328240820   0.565613789802761   1.0
H8   H   0.646609720057562   0.836141491695855   0.516502376261215   1.0
H9   H   0.276728640707475   0.473279151767009   0.746491784590724   1.0
H10   H   0.418362590691501   0.081795496851989   0.802406048440552   1.0
H11   H   0.006376644749047   0.223230863699584   0.469854033829065   1.0
C12   C   0.594823170157397   0.531309967948935   0.541647785651989   1.0
C13   C   0.196840520408152   0.149595176186033   0.515036052384389   1.0
C14   C   0.363929740275260   0.298807068973218   0.684515073938478   1.0
N16   N   0.419832255719605   0.401261884582318   0.370787130563890   1.0
