data_1
_audit_creation_method   'Generated by vasp2cif'
_cell_length_a    3.63950631662
_cell_length_b    4.89008549111
_cell_length_c    7.2693625175
_cell_angle_alpha    86.8127864236
_cell_angle_beta    92.7883013597
_cell_angle_gamma    97.0521976369
_symmetry_space_group_name_H-M    'P 1'
loop_
_atom_site_label
_atom_site_type_symbol
_atom_site_fract_x
_atom_site_fract_y
_atom_site_fract_z
_atom_site_occupancy
H4   H   0.736196473913175   0.957056324807716   0.164778649142555   1.0
H5   H   0.039208536111502   0.810053711726034   0.539254085927467   1.0
H6   H   0.606691656265859   0.748700279635031   0.463139277019550   1.0
H7   H   0.466834878521482   0.161445582153732   0.568178590198535   1.0
H8   H   0.931697405884421   0.226225970336422   0.646558482547263   1.0
H9   H   0.107739680239000   0.463943507105213   0.353429794323432   1.0
H10   H   0.643956914714515   0.413530073706227   0.266569108898388   1.0
H11   H   0.206868308490634   0.012610921787065   0.233951147618342   1.0
C12   C   0.751228570116005   0.171460919717816   0.529129038848133   1.0
C13   C   0.929461397289941   0.038519742856487   0.271449051134070   1.0
C14   C   0.860628405185984   0.317605616096650   0.343492830029952   1.0
N16   N   0.832276481638011   0.895975386567656   0.460523116517876   1.0
