data_1
_audit_creation_method   'Generated by vasp2cif'
_cell_length_a    6.42436272487
_cell_length_b    5.18347095224
_cell_length_c    4.56750032714
_cell_angle_alpha    60.2208614171
_cell_angle_beta    85.1404228968
_cell_angle_gamma    82.233176167
_symmetry_space_group_name_H-M    'P 1'
loop_
_atom_site_label
_atom_site_type_symbol
_atom_site_fract_x
_atom_site_fract_y
_atom_site_fract_z
_atom_site_occupancy
H4   H   0.383015629094167   0.880876034391861   0.932192213418986   1.0
H5   H   0.453066995489387   0.452251276562833   0.872212301469872   1.0
H6   H   0.641148111147643   0.186887700904727   0.889745382928290   1.0
H7   H   0.621009680887816   0.962057122919248   0.487794545710322   1.0
H8   H   0.435777218734650   0.274115922228937   0.417815900470259   1.0
H9   H   0.142485831537073   0.997096964827278   0.461407333732083   1.0
H10   H   0.316439044662566   0.683953792704465   0.513488746005279   1.0
H11   H   0.188695893360134   0.194202049646748   0.838550313874251   1.0
C12   C   0.476235811850430   0.093051179415220   0.364166385708820   1.0
C13   C   0.318989217337666   0.050896356404977   0.994464036237495   1.0
C14   C   0.290450055925270   0.925844151582716   0.376761030485831   1.0
N16   N   0.494194706819549   0.227971194518346   0.982634226866494   1.0
