data_1
_audit_creation_method   'Generated by vasp2cif'
_cell_length_a    4.53791848304
_cell_length_b    6.33845745557
_cell_length_c    4.54741963778
_cell_angle_alpha    91.0284270781
_cell_angle_beta    74.2158815335
_cell_angle_gamma    92.0853586602
_symmetry_space_group_name_H-M    'P 1'
loop_
_atom_site_label
_atom_site_type_symbol
_atom_site_fract_x
_atom_site_fract_y
_atom_site_fract_z
_atom_site_occupancy
H4   H   0.634084974493099   0.070653296976133   0.848411632311858   1.0
H5   H   0.320068602725577   0.886366099793840   0.524899739060977   1.0
H6   H   0.223483276299191   0.541569169546655   0.462646146594217   1.0
H7   H   0.599672473576888   0.470450862920700   0.833957280397271   1.0
H8   H   0.076602967827611   0.166302584356131   0.295520035731208   1.0
C9   C   0.486163518206879   0.362311701277974   0.714855077032027   1.0
C10   C   0.345991278374562   0.051783293363158   0.557617219811704   1.0
C11   C   0.300364416685547   0.397772095009465   0.531244343957262   1.0
N13   N   0.510502216323658   0.146416629663683   0.726464203211314   1.0
N14   N   0.215892643581164   0.201038906561280   0.435226182897324   1.0
