data_1
_audit_creation_method   'Generated by vasp2cif'
_cell_length_a    4.65914891281
_cell_length_b    6.15963122266
_cell_length_c    4.51474352443
_cell_angle_alpha    94.052619845
_cell_angle_beta    75.9247414191
_cell_angle_gamma    83.9361262647
_symmetry_space_group_name_H-M    'P 1'
loop_
_atom_site_label
_atom_site_type_symbol
_atom_site_fract_x
_atom_site_fract_y
_atom_site_fract_z
_atom_site_occupancy
H4   H   0.334111945338997   0.109708347891747   0.199652774253693   1.0
H5   H   0.621326717598741   0.944774424607928   0.566506179211174   1.0
H6   H   0.857335130493453   0.580099646245209   0.435693576742537   1.0
H7   H   0.450220424896919   0.496799494601355   0.104385528187372   1.0
H8   H   0.928920075822468   0.223965326180903   0.705260119514250   1.0
C9   C   0.544068740545050   0.397689714476144   0.250407176181952   1.0
C10   C   0.622561044736187   0.104951203320134   0.491708179543046   1.0
C11   C   0.745336445949249   0.439114168107082   0.414608683927298   1.0
N13   N   0.469443933827222   0.190450344770291   0.304618039352910   1.0
N14   N   0.788265573016176   0.254594442967544   0.566128628878644   1.0
