data_1
_audit_creation_method   'Generated by vasp2cif'
_cell_length_a    5.59829816822
_cell_length_b    5.14279440547
_cell_length_c    4.68999635472
_cell_angle_alpha    76.6417314848
_cell_angle_beta    82.6353979055
_cell_angle_gamma    97.6912535424
_symmetry_space_group_name_H-M    'P 1'
loop_
_atom_site_label
_atom_site_type_symbol
_atom_site_fract_x
_atom_site_fract_y
_atom_site_fract_z
_atom_site_occupancy
H4   H   0.667467800812460   0.346070429197411   0.893907676110224   1.0
H5   H   0.695762385404009   0.977444593085174   0.614312015877680   1.0
H6   H   0.070067962756916   0.315461273398860   0.426891670818080   1.0
H7   H   0.289595021778787   0.564682394123729   0.817560793186580   1.0
H8   H   0.333196214843632   0.966465934972341   0.335848167758584   1.0
C9   C   0.339207871867522   0.410862446345185   0.712990836873310   1.0
C10   C   0.558425413128234   0.103723165722371   0.615458382125873   1.0
C11   C   0.229366210798638   0.285214867713314   0.525684542577480   1.0
N13   N   0.543077738520829   0.292927705545942   0.765721449077191   1.0
N14   N   0.370725160874031   0.096401780431336   0.466653077722647   1.0
