data_1
_audit_creation_method   'Generated by vasp2cif'
_cell_length_a    4.76695201977
_cell_length_b    5.69262898844
_cell_length_c    4.77816888699
_cell_angle_alpha    98.2512332792
_cell_angle_beta    102.255472924
_cell_angle_gamma    96.384932966
_symmetry_space_group_name_H-M    'P 1'
loop_
_atom_site_label
_atom_site_type_symbol
_atom_site_fract_x
_atom_site_fract_y
_atom_site_fract_z
_atom_site_occupancy
H4   H   0.123058927897123   0.518671696852561   0.625707653249346   1.0
H5   H   0.281010273129997   0.135542291305421   0.770507033332011   1.0
H6   H   0.743518585385314   0.330118744034663   0.154918439340229   1.0
H7   H   0.380852526673600   0.657041469945989   0.240029745665810   1.0
H8   H   0.654923998475254   0.021928989354065   0.478539222183876   1.0
C9   C   0.410498220332956   0.499398919514365   0.332377966143833   1.0
C10   C   0.352637033838439   0.229862781808653   0.615226428841943   1.0
C11   C   0.589848290573193   0.335035875461600   0.289110486732509   1.0
N13   N   0.263321478987454   0.428718196971577   0.532844485149522   1.0
N14   N   0.548941084679685   0.167675986248317   0.466109115869086   1.0
