data_1
_audit_creation_method   'Generated by vasp2cif'
_cell_length_a    4.66893042419
_cell_length_b    3.41550358858
_cell_length_c    7.90987366684
_cell_angle_alpha    94.2727276558
_cell_angle_beta    86.4182187811
_cell_angle_gamma    91.7475518817
_symmetry_space_group_name_H-M    'P 1'
loop_
_atom_site_label
_atom_site_type_symbol
_atom_site_fract_x
_atom_site_fract_y
_atom_site_fract_z
_atom_site_occupancy
H4   H   0.392845228140509   0.065809343997648   0.772037536112680   1.0
H5   H   0.875846225577237   0.649691585277608   0.350045093128821   1.0
H6   H   0.465774340598243   0.005057029818024   0.233216322436582   1.0
H7   H   0.139788952059128   0.289682003035331   0.518675372295326   1.0
H8   H   0.839421599556753   0.687730704551530   0.676301414396739   1.0
C9   C   0.490997760226005   0.983910915007899   0.366149694821784   1.0
C10   C   0.327862825189886   0.118283723298117   0.506275337688709   1.0
C11   C   0.699388632625201   0.820114761692363   0.595673391229096   1.0
N13   N   0.721888921173464   0.802481891745569   0.425678905981575   1.0
N14   N   0.461974427821301   0.014518972283510   0.647062994955599   1.0
