data_1
_audit_creation_method   'Generated by vasp2cif'
_cell_length_a    4.68505747088
_cell_length_b    3.53171230536
_cell_length_c    8.20954214828
_cell_angle_alpha    112.594924061
_cell_angle_beta    93.7043997995
_cell_angle_gamma    84.6921431227
_symmetry_space_group_name_H-M    'P 1'
loop_
_atom_site_label
_atom_site_type_symbol
_atom_site_fract_x
_atom_site_fract_y
_atom_site_fract_z
_atom_site_occupancy
H4   H   0.590682766507932   0.277959332410333   0.225697467232621   1.0
H5   H   0.197620947216606   0.339839485865980   0.665985990734015   1.0
H6   H   0.583827729320660   0.847959516921733   0.782014393486584   1.0
H7   H   0.871315617999421   0.774048040762104   0.484244816395446   1.0
H8   H   0.186680405735665   0.997891854393245   0.331710084782145   1.0
C9   C   0.555508491162563   0.656474780074831   0.645554333393918   1.0
C10   C   0.695746795714960   0.619662417871915   0.499295288525929   1.0
C11   C   0.329136449605691   0.223691074421460   0.411059544813895   1.0
N13   N   0.328649348413734   0.409373548636317   0.586751303506524   1.0
N14   N   0.550091909252501   0.350028743124021   0.354781496370577   1.0
