data_1
_audit_creation_method   'Generated by vasp2cif'
_cell_length_a    5.70777866916
_cell_length_b    5.6924646398
_cell_length_c    6.05549611143
_cell_angle_alpha    79.1353782185
_cell_angle_beta    89.518398641
_cell_angle_gamma    97.6754983243
_symmetry_space_group_name_H-M    'P 1'
loop_
_atom_site_label
_atom_site_type_symbol
_atom_site_fract_x
_atom_site_fract_y
_atom_site_fract_z
_atom_site_occupancy
C1   C   0.461353664160526   0.579619512406779   0.332088505672736   1.0
C2   C   0.576723206003756   0.413966686308413   0.208332078939904   1.0
H3   H   0.766452919080585   0.473323571301229   0.178274998495631   1.0
H4   H   0.494007901063895   0.414159140728771   0.046803517773824   1.0
H5   H   0.563425240921575   0.417204435508893   0.653575141297011   1.0
H6   H   0.508427178384679   0.702006977250271   0.642175152761155   1.0
H7   H   0.551154618101535   0.227967782234771   0.302303859559316   1.0
H8   H   0.481074304111793   0.765086171271868   0.239377430797205   1.0
H9   H   0.274269760149970   0.516575428485190   0.372000513328963   1.0
H10   H   0.758138834798082   0.650764484193708   0.525276153256328   1.0
N14   N   0.580479959511614   0.588007367791334   0.554327031684501   1.0
