data_1
_audit_creation_method   'Generated by vasp2cif'
_cell_length_a    5.96203381467
_cell_length_b    5.55465600494
_cell_length_c    5.94121535738
_cell_angle_alpha    83.5391876052
_cell_angle_beta    74.6838088243
_cell_angle_gamma    83.148912473
_symmetry_space_group_name_H-M    'P 1'
loop_
_atom_site_label
_atom_site_type_symbol
_atom_site_fract_x
_atom_site_fract_y
_atom_site_fract_z
_atom_site_occupancy
C1   C   0.577192033846565   0.791269334398883   0.305144358914198   1.0
C2   C   0.499186517086088   0.594517897832596   0.192640503560916   1.0
H3   H   0.647070835239141   0.498640639435315   0.075832346147415   1.0
H4   H   0.379436184595733   0.678081653475680   0.089235913777799   1.0
H5   H   0.665975650241080   0.548188846636911   0.577653521303695   1.0
H6   H   0.790099221186786   0.810382056102441   0.536995307990502   1.0
H7   H   0.408009055491682   0.461118937609626   0.323940128826258   1.0
H8   H   0.671345429820811   0.923483564223091   0.176276173545865   1.0
H9   H   0.430922218192613   0.886675777836935   0.423082983881841   1.0
H10   H   0.891865941960980   0.593603657429604   0.351386239915328   1.0
N14   N   0.742825192280648   0.679824306266511   0.452904419511952   1.0
