data_1
_audit_creation_method   'Generated by vasp2cif'
_cell_length_a    5.78095485697
_cell_length_b    4.17288276922
_cell_length_c    8.33203203435
_cell_angle_alpha    95.1833466229
_cell_angle_beta    93.3072042491
_cell_angle_gamma    100.414796608
_symmetry_space_group_name_H-M    'P 1'
loop_
_atom_site_label
_atom_site_type_symbol
_atom_site_fract_x
_atom_site_fract_y
_atom_site_fract_z
_atom_site_occupancy
C1   C   0.577529331559511   0.723192852987587   0.415375822075148   1.0
C2   C   0.556850417372843   0.525085793694799   0.559936827784810   1.0
H3   H   0.716110644201514   0.424514826169478   0.583821574189095   1.0
H4   H   0.535161739655955   0.684916069449883   0.666727858463474   1.0
H5   H   0.759175939301031   0.414223069900743   0.268896921492640   1.0
H6   H   0.606899066354536   0.640650546446508   0.162891045740515   1.0
H7   H   0.418089054170181   0.822507859416596   0.390540371948632   1.0
H8   H   0.403432335203050   0.326351561923566   0.542301662502815   1.0
H9   H   0.731629045624963   0.919982204631012   0.431415172934479   1.0
H10   H   0.461939300505385   0.320655962791854   0.240194635428111   1.0
N14   N   0.605984384542872   0.509758408502968   0.262937009770169   1.0
