data_1
_audit_creation_method   'Generated by vasp2cif'
_cell_length_a    5.9192245361
_cell_length_b    4.24518999937
_cell_length_c    7.89133911747
_cell_angle_alpha    95.6358394969
_cell_angle_beta    99.1239540083
_cell_angle_gamma    94.7212432777
_symmetry_space_group_name_H-M    'P 1'
loop_
_atom_site_label
_atom_site_type_symbol
_atom_site_fract_x
_atom_site_fract_y
_atom_site_fract_z
_atom_site_occupancy
C1   C   0.405756267751613   0.843953033827212   0.615550037088973   1.0
C2   C   0.575802145012830   0.635710801623048   0.546710801419280   1.0
H3   H   0.489422724314807   0.450324793650779   0.445960998942070   1.0
H4   H   0.695327840105982   0.784631341502212   0.489144968259325   1.0
H5   H   0.141619516798656   0.475507403512623   0.615724788935438   1.0
H6   H   0.127768286357430   0.796504644386609   0.753935051981053   1.0
H7   H   0.493062338698529   0.032168743402039   0.713732200910250   1.0
H8   H   0.674448255388832   0.525713008015067   0.650375340844221   1.0
H9   H   0.301462295325805   0.946220937863544   0.512174834421046   1.0
H10   H   0.326504491581382   0.553604378810178   0.806254210571488   1.0
N14   N   0.239136291290514   0.651917231540061   0.703010379799636   1.0
