data_1
_audit_creation_method   'Generated by vasp2cif'
_cell_length_a    6.51570353418
_cell_length_b    4.43645085424
_cell_length_c    7.0877203961
_cell_angle_alpha    101.247334179
_cell_angle_beta    90.029019004
_cell_angle_gamma    87.1155733752
_symmetry_space_group_name_H-M    'P 1'
loop_
_atom_site_label
_atom_site_type_symbol
_atom_site_fract_x
_atom_site_fract_y
_atom_site_fract_z
_atom_site_occupancy
C1   C   0.565555994475977   0.451262890470486   0.485458829079271   1.0
C2   C   0.713202711511711   0.707027007254418   0.543766738139729   1.0
H3   H   0.848214589371645   0.608298838994659   0.605039166644739   1.0
H4   H   0.765334632712075   0.797260894871041   0.420081146048145   1.0
H5   H   0.426798180135490   0.630693113826908   0.255952371316399   1.0
H6   H   0.301744627850509   0.746154681637519   0.466107921295898   1.0
H7   H   0.637858764676177   0.257126709070255   0.385719330241718   1.0
H8   H   0.645012816998579   0.894447318182117   0.652393075740045   1.0
H9   H   0.504989669891679   0.373857609936385   0.610193183167546   1.0
H10   H   0.278226089278576   0.391949781062850   0.339755415200981   1.0
Cl11   Cl   0.450682067685803   0.897637543178831   0.018378946435163   1.0
Cl12   Cl   0.968635457317372   0.321094015011298   0.151657528598424   1.0
Cl13   Cl   0.134390706841086   0.145349149598398   0.649509025811349   1.0
N14   N   0.381637657097430   0.560520167717633   0.380363336739577   1.0
