data_1
_audit_creation_method   'Generated by vasp2cif'
_cell_length_a    5.31141729482
_cell_length_b    3.92535966579
_cell_length_c    9.14127671415
_cell_angle_alpha    91.149718387
_cell_angle_beta    83.255245743
_cell_angle_gamma    90.2557871604
_symmetry_space_group_name_H-M    'P 1'
loop_
_atom_site_label
_atom_site_type_symbol
_atom_site_fract_x
_atom_site_fract_y
_atom_site_fract_z
_atom_site_occupancy
C1   C   0.453672702958862   0.087585118296595   0.476327210198008   1.0
C2   C   0.679591130084859   0.101337833765264   0.564805481325990   1.0
H3   H   0.820701501222068   0.908286233596911   0.525356301939198   1.0
H4   H   0.771798314354186   0.351111450930851   0.558351158253224   1.0
H5   H   0.389241913541433   0.135494512279344   0.251796853310566   1.0
H6   H   0.658129440908958   0.927991111286808   0.271936574907450   1.0
H7   H   0.351072259154570   0.846399240409212   0.487189706815251   1.0
H8   H   0.615430088662933   0.054121320518377   0.680360822007856   1.0
H9   H   0.317654131841472   0.291047267325808   0.508213167158502   1.0
H10   H   0.651765414555086   0.340128024428857   0.291682498124700   1.0
Cl11   Cl   0.540519665088709   0.165798539801962   0.971824969701153   1.0
Cl12   Cl   0.033598013430947   0.627891699681243   0.224380298151345   1.0
Cl13   Cl   0.116525135946702   0.629981528484343   0.767614861689943   1.0
N14   N   0.539766752575126   0.125885120867849   0.312903777838585   1.0
