data_1
_audit_creation_method   'Generated by vasp2cif'
_cell_length_a    5.56035017258
_cell_length_b    4.67371943396
_cell_length_c    7.61004729476
_cell_angle_alpha    85.6700295084
_cell_angle_beta    84.9577314463
_cell_angle_gamma    74.7033201837
_symmetry_space_group_name_H-M    'P 1'
loop_
_atom_site_label
_atom_site_type_symbol
_atom_site_fract_x
_atom_site_fract_y
_atom_site_fract_z
_atom_site_occupancy
C1   C   0.463579374575026   0.543276049486948   0.534370056704248   1.0
C2   C   0.649235521330006   0.730829791256198   0.492979013100545   1.0
H3   H   0.828664043768669   0.596397267883795   0.440373845982798   1.0
H4   H   0.581425098661576   0.907370624752730   0.393419863980846   1.0
H5   H   0.537037901693509   0.360360573422113   0.281869209497991   1.0
H6   H   0.291555155103907   0.654565285964857   0.292560445432684   1.0
H7   H   0.542904493375161   0.336539626275744   0.608692472735029   1.0
H8   H   0.677356896967318   0.828035851930785   0.612875676214351   1.0
H9   H   0.293407048090302   0.664798444094025   0.605378412381064   1.0
H10   H   0.263373180703681   0.326767041205471   0.381684776851401   1.0
Cl11   Cl   0.590007874997951   0.704805619830232   0.977008542696936   1.0
Cl12   Cl   0.002497370682320   0.108767998652219   0.220255173231678   1.0
Cl13   Cl   0.030728594124938   0.152702133883984   0.727056468770122   1.0
N14   N   0.383408606910436   0.463232658260480   0.361883671132887   1.0
