data_1
_audit_creation_method   'Generated by vasp2cif'
_cell_length_a    10.3653653703
_cell_length_b    4.59342506542
_cell_length_c    4.09810501424
_cell_angle_alpha    90.2807986442
_cell_angle_beta    89.6636233719
_cell_angle_gamma    83.6945461122
_symmetry_space_group_name_H-M    'P 1'
loop_
_atom_site_label
_atom_site_type_symbol
_atom_site_fract_x
_atom_site_fract_y
_atom_site_fract_z
_atom_site_occupancy
C1   C   0.596084118038114   0.715531825209865   0.549037422823758   1.0
C2   C   0.507113241425039   0.475518200000316   0.513047068549966   1.0
H3   H   0.516375872345108   0.325893697646954   0.719855692923815   1.0
H4   H   0.406455114592028   0.573603359708017   0.503803313143564   1.0
H5   H   0.755503826262753   0.442241080942679   0.749874649422772   1.0
H6   H   0.796098641357553   0.755926608205222   0.591489536991020   1.0
H7   H   0.587424739888107   0.867538582151965   0.345210681534340   1.0
H8   H   0.528244980785644   0.350287175150804   0.287969923105422   1.0
H9   H   0.576802804213607   0.840577157731104   0.774038123902535   1.0
H10   H   0.766015613065854   0.472286113327996   0.351489139085025   1.0
N14   N   0.737596553531979   0.590776915430432   0.560327614983670   1.0
