data_1
_audit_creation_method   'Generated by vasp2cif'
_cell_length_a    7.94658897516
_cell_length_b    4.54412177041
_cell_length_c    5.79730323128
_cell_angle_alpha    96.1342061001
_cell_angle_beta    102.420215526
_cell_angle_gamma    96.9477504158
_symmetry_space_group_name_H-M    'P 1'
loop_
_atom_site_label
_atom_site_type_symbol
_atom_site_fract_x
_atom_site_fract_y
_atom_site_fract_z
_atom_site_occupancy
C1   C   0.606914698357002   0.661783613760612   0.519652026453443   1.0
C2   C   0.469755067108267   0.599350858678577   0.662525874916390   1.0
H3   H   0.363327167005352   0.427363428794862   0.561919698693707   1.0
H4   H   0.527962656876880   0.528488500027883   0.832952569824322   1.0
H5   H   0.738133902574795   0.305128640614747   0.622026690675135   1.0
H6   H   0.786988423419579   0.428660252615032   0.377682090797229   1.0
H7   H   0.551430121660914   0.728375715002187   0.347359676551534   1.0
H8   H   0.415455332430319   0.803957088723550   0.700178206601755   1.0
H9   H   0.714621915025539   0.828498561968608   0.619909527148643   1.0
H10   H   0.593182701421313   0.224513655152656   0.353555002423107   1.0
Cl11   Cl   0.041587355978010   0.920100171058984   0.553924890396182   1.0
Cl12   Cl   0.847744424687349   0.235825333297818   0.006694296809229   1.0
Cl13   Cl   0.317078594848752   0.034570914242018   0.137299265742918   1.0
N14   N   0.687818023782043   0.384862900148775   0.464509959831673   1.0
