data_1
_audit_creation_method   'Generated by vasp2cif'
_cell_length_a    6.02743302786
_cell_length_b    5.63051827118
_cell_length_c    6.87435962199
_cell_angle_alpha    72.3698659676
_cell_angle_beta    88.0661145506
_cell_angle_gamma    84.1911386583
_symmetry_space_group_name_H-M    'P 1'
loop_
_atom_site_label
_atom_site_type_symbol
_atom_site_fract_x
_atom_site_fract_y
_atom_site_fract_z
_atom_site_occupancy
C1   C   0.686593991688069   0.670031458064738   0.399640040354410   1.0
C2   C   0.601814647424521   0.440028263085083   0.363596931491101   1.0
C3   C   0.612044638148009   0.459157138232368   0.136988834913099   1.0
H4   H   0.780814463256671   0.487848118407652   0.076877442231467   1.0
H5   H   0.564414443000895   0.287817681923652   0.114734785186449   1.0
H6   H   0.430045188709014   0.420175903253328   0.419998168792393   1.0
H7   H   0.706127052615391   0.272911510105712   0.450028748334604   1.0
H8   H   0.489166332959411   0.653320358677332   0.662989000595968   1.0
H9   H   0.718187769376050   0.805210693678751   0.657012759324547   1.0
H10   H   0.497200614602972   0.614870864283212   0.049156834232435   1.0
H11   H   0.863987118696001   0.681184560451631   0.365611003175290   1.0
H12   H   0.593955826316583   0.843687966921768   0.311207428828179   1.0
H13   H   0.738936830993645   0.495371384176583   0.714260723291326   1.0
N17   N   0.656119943180417   0.658227373407122   0.622606407912656   1.0
