data_1
_audit_creation_method   'Generated by vasp2cif'
_cell_length_a    6.21422124981
_cell_length_b    5.94467483675
_cell_length_c    5.96843554703
_cell_angle_alpha    76.8285456235
_cell_angle_beta    88.8913787173
_cell_angle_gamma    82.2560941346
_symmetry_space_group_name_H-M    'P 1'
loop_
_atom_site_label
_atom_site_type_symbol
_atom_site_fract_x
_atom_site_fract_y
_atom_site_fract_z
_atom_site_occupancy
C1   C   0.586152028051728   0.606327343183608   0.368013265176295   1.0
C2   C   0.620047132851738   0.404469322459882   0.247022888716650   1.0
C3   C   0.411198708748458   0.300712735210233   0.219900652789391   1.0
H4   H   0.281754808792122   0.432995871137571   0.131418158195771   1.0
H5   H   0.442334546887437   0.165579067402682   0.122328989585675   1.0
H6   H   0.744396551438342   0.268399449130683   0.339122743703847   1.0
H7   H   0.689588484804972   0.471632471237619   0.078933636948300   1.0
H8   H   0.573428457167324   0.372666736641953   0.693725575530898   1.0
H9   H   0.329083127844711   0.507947526080670   0.601087070368763   1.0
H10   H   0.347295585306149   0.218986347811629   0.386553743509126   1.0
H11   H   0.738216354776441   0.668188919308349   0.394595831478561   1.0
H12   H   0.471915117860185   0.751780834052106   0.276185529061600   1.0
H13   H   0.507312428932224   0.653579635379934   0.700117007471945   1.0
Cl14   Cl   0.635939544634816   0.956757106067386   0.801635138518392   1.0
Cl15   Cl   0.012362487081248   0.366396628597684   0.747311879783283   1.0
Cl16   Cl   0.046301398149453   0.896857511807049   0.241658471122697   1.0
N17   N   0.490815251899164   0.529985545928888   0.607042501167925   1.0
