data_1
_audit_creation_method   'Generated by vasp2cif'
_cell_length_a    6.07324464504
_cell_length_b    5.82215047479
_cell_length_c    6.13153852516
_cell_angle_alpha    81.6347110541
_cell_angle_beta    80.0875698
_cell_angle_gamma    82.2835306459
_symmetry_space_group_name_H-M    'P 1'
loop_
_atom_site_label
_atom_site_type_symbol
_atom_site_fract_x
_atom_site_fract_y
_atom_site_fract_z
_atom_site_occupancy
C1   C   0.528310328898264   0.600256033503825   0.383766451199882   1.0
C2   C   0.528278285304225   0.445249168581085   0.203309033750522   1.0
C3   C   0.409915209003451   0.226342144841830   0.289970539816430   1.0
H4   H   0.231651825910930   0.273367290767695   0.350353773092806   1.0
H5   H   0.421559069466333   0.118197844376702   0.157149902289262   1.0
H6   H   0.702151130882513   0.399013463117328   0.124968423678069   1.0
H7   H   0.442219024664084   0.550996317546556   0.073520254749972   1.0
H8   H   0.660107469415188   0.328390587521525   0.620981121876980   1.0
H9   H   0.698148105570596   0.600003871864445   0.658690238587447   1.0
H10   H   0.484860229318009   0.120651828798835   0.427068771611779   1.0
H11   H   0.582539275773144   0.769446973759429   0.313625443294228   1.0
H12   H   0.364492794930335   0.623348272126876   0.488124771926564   1.0
H13   H   0.855448763641455   0.474719910313318   0.452492939699361   1.0
N17   N   0.694826956701952   0.491377943000465   0.540107552774721   1.0
