data_1
_audit_creation_method   'Generated by vasp2cif'
_cell_length_a    5.78805597195
_cell_length_b    5.88693252858
_cell_length_c    6.48219534292
_cell_angle_alpha    80.8481993576
_cell_angle_beta    77.2060836614
_cell_angle_gamma    82.0473513239
_symmetry_space_group_name_H-M    'P 1'
loop_
_atom_site_label
_atom_site_type_symbol
_atom_site_fract_x
_atom_site_fract_y
_atom_site_fract_z
_atom_site_occupancy
C1   C   0.524734695494111   0.626132072840491   0.352183246372725   1.0
C2   C   0.537819856603981   0.474629015026167   0.179176492273385   1.0
C3   C   0.411232158312195   0.256195957107316   0.256811821985195   1.0
H4   H   0.219914147604058   0.299511958127681   0.315168172728711   1.0
H5   H   0.431817551140483   0.154536289095844   0.126486263136101   1.0
H6   H   0.724998415408919   0.430151160955503   0.106194431922951   1.0
H7   H   0.456911968396724   0.580914189258891   0.054160715435714   1.0
H8   H   0.859814518390891   0.491543572286112   0.426570100847521   1.0
H9   H   0.637386329855588   0.355659507660064   0.586182798976687   1.0
H10   H   0.483828480064176   0.146438183757674   0.385092809857120   1.0
H11   H   0.588787424951335   0.792534211793985   0.285733160539912   1.0
H12   H   0.346006883208098   0.651594617408392   0.448821105615309   1.0
H13   H   0.681182871870149   0.622983936847660   0.619526603366772   1.0
N17   N   0.685763742113735   0.514516526188082   0.507041970232265   1.0
