data_1
_audit_creation_method   'Generated by vasp2cif'
_cell_length_a    7.75747457276
_cell_length_b    4.38315876734
_cell_length_c    6.82428654865
_cell_angle_alpha    80.1525291864
_cell_angle_beta    83.9931847947
_cell_angle_gamma    78.3311695539
_symmetry_space_group_name_H-M    'P 1'
loop_
_atom_site_label
_atom_site_type_symbol
_atom_site_fract_x
_atom_site_fract_y
_atom_site_fract_z
_atom_site_occupancy
C1   C   0.912963265451161   0.347837484439978   0.374312133813945   1.0
C2   C   0.742922416600770   0.222479940251553   0.439962038143570   1.0
C3   C   0.652242369515889   0.201523950999167   0.253853961908959   1.0
H4   H   0.528039911314025   0.119273422001108   0.297253780279739   1.0
H5   H   0.736196304008033   0.038641702661913   0.162643585907588   1.0
H6   H   0.772044289193623   0.988693364923698   0.530752474981369   1.0
H7   H   0.654893571135091   0.375623446351057   0.534537599783029   1.0
H8   H   0.065848027419953   0.059510376052792   0.602663465609446   1.0
H9   H   0.983149067706513   0.416666879564616   0.656975639283623   1.0
H10   H   0.987761987650913   0.228512679376209   0.256027381305806   1.0
H11   H   0.626102934251776   0.433254834495017   0.160511056052428   1.0
H12   H   0.887683074930166   0.600320186873546   0.320624424029937   1.0
H13   H   0.151857210669476   0.370342478635628   0.485923993217959   1.0
N17   N   0.036015547644816   0.293595809670279   0.540832144512088   1.0
