data_1
_audit_creation_method   'Generated by vasp2cif'
_cell_length_a    6.60720421032
_cell_length_b    5.5301272245
_cell_length_c    7.18982125873
_cell_angle_alpha    90.4688221843
_cell_angle_beta    115.330613165
_cell_angle_gamma    110.075154257
_symmetry_space_group_name_H-M    'P 1'
loop_
_atom_site_label
_atom_site_type_symbol
_atom_site_fract_x
_atom_site_fract_y
_atom_site_fract_z
_atom_site_occupancy
C1   C   0.876908640878213   0.459647013364048   0.383850197323913   1.0
C2   C   0.775304940427525   0.643934276390631   0.440039040886608   1.0
C3   C   0.578841768715065   0.687046689421355   0.246654895258065   1.0
H4   H   0.652334723890592   0.782185420782307   0.143513221779845   1.0
H5   H   0.508608949760130   0.814945704931651   0.294646724510363   1.0
H6   H   0.702153208760625   0.563162326049865   0.547201928145910   1.0
H7   H   0.923562337026478   0.833222943154736   0.522177686911280   1.0
H8   H   0.098228755386871   0.428214157392741   0.692787449766613   1.0
H9   H   0.238699043913719   0.683003917942948   0.609521962873503   1.0
H10   H   0.757182076550746   0.254332438629820   0.351009461390581   1.0
H11   H   0.427739675163926   0.503925436320767   0.155567810732354   1.0
H12   H   0.910312825155291   0.501727091418001   0.249425765871186   1.0
H13   H   0.195087575140142   0.375594827434347   0.520541491882093   1.0
N17   N   0.121056560810815   0.489330464920793   0.564614194939414   1.0
