data_1
_audit_creation_method   'Generated by vasp2cif'
_cell_length_a    6.19444397829
_cell_length_b    5.58511849819
_cell_length_c    7.24244982065
_cell_angle_alpha    89.278591329
_cell_angle_beta    115.734917855
_cell_angle_gamma    75.4461346996
_symmetry_space_group_name_H-M    'P 1'
loop_
_atom_site_label
_atom_site_type_symbol
_atom_site_fract_x
_atom_site_fract_y
_atom_site_fract_z
_atom_site_occupancy
C1   C   0.169514228493255   0.393004213931094   0.622830866401713   1.0
C2   C   0.293425097383269   0.593584737978652   0.609316454902056   1.0
C3   C   0.504543113177984   0.602353038235922   0.819865869447457   1.0
H4   H   0.437733356234489   0.624924163184782   0.937945528792739   1.0
H5   H   0.574961153127870   0.759757099024093   0.810662781906322   1.0
H6   H   0.364868475955519   0.557221508411167   0.494730721889321   1.0
H7   H   0.152785151451373   0.775548336162504   0.555101214853893   1.0
H8   H   0.901051324738652   0.449740200646045   0.307597393172647   1.0
H9   H   0.802621237864948   0.631009562992878   0.454443988382617   1.0
H10   H   0.268110117613631   0.208286553034957   0.607750000103554   1.0
H11   H   0.658847517829547   0.431771318670416   0.871654370860794   1.0
H12   H   0.154943386952573   0.382329728285593   0.767243329331759   1.0
H13   H   0.816721550991936   0.324806514795405   0.468966018197802   1.0
N17   N   0.901442089716591   0.454486766551713   0.450238988181997   1.0
