data_1
_audit_creation_method   'Generated by vasp2cif'
_cell_length_a    5.80052315859
_cell_length_b    5.79556929068
_cell_length_c    9.05202975337
_cell_angle_alpha    58.5806774637
_cell_angle_beta    122.916837999
_cell_angle_gamma    102.135893128
_symmetry_space_group_name_H-M    'P 1'
loop_
_atom_site_label
_atom_site_type_symbol
_atom_site_fract_x
_atom_site_fract_y
_atom_site_fract_z
_atom_site_occupancy
C1   C   0.888518592321454   0.609339473735737   0.371528992920290   1.0
C2   C   0.725698198097938   0.769255749931268   0.382778425754900   1.0
C3   C   0.523303100734488   0.994207663309240   0.172273211420936   1.0
H4   H   0.631421415712779   0.134291186511206   0.097414986424752   1.0
H5   H   0.414911198424626   0.107272976028987   0.185580435255837   1.0
H6   H   0.613304609520554   0.630521251119845   0.455443780279481   1.0
H7   H   0.869773538434472   0.858853307028582   0.476802158821236   1.0
H8   H   0.986785071142712   0.256974179054197   0.654946792398704   1.0
H9   H   0.227774314603956   0.465997260731733   0.673956663031589   1.0
H10   H   0.753864735760921   0.509455469988112   0.283774136749990   1.0
H11   H   0.371783100068491   0.911586978018384   0.075831113979689   1.0
H12   H   0.012257661383401   0.738285447550680   0.306696936749894   1.0
H13   H   0.198923566315479   0.272796450429674   0.577370832814594   1.0
N17   N   0.090240561459694   0.384646653754771   0.583048055603889   1.0
