data_1
_audit_creation_method   'Generated by vasp2cif'
_cell_length_a    7.55438764289
_cell_length_b    5.94047011713
_cell_length_c    6.08029011674
_cell_angle_alpha    76.2261677798
_cell_angle_beta    109.222063714
_cell_angle_gamma    107.924057458
_symmetry_space_group_name_H-M    'P 1'
loop_
_atom_site_label
_atom_site_type_symbol
_atom_site_fract_x
_atom_site_fract_y
_atom_site_fract_z
_atom_site_occupancy
C1   C   0.191834144448485   0.641956874658995   0.539143995744389   1.0
C2   C   0.501648887342299   0.256862903340341   0.471178218589216   1.0
C3   C   0.333637198182345   0.370392928344657   0.416907847900561   1.0
C4   C   0.376408408917250   0.573562963088222   0.558162092050701   1.0
H5   H   0.601835534975883   0.449653462692083   0.175989399327129   1.0
H6   H   0.766275920397078   0.333601618797459   0.385771516747837   1.0
H7   H   0.718342580501556   0.581849654398290   0.416150251952153   1.0
H8   H   0.113156925455108   0.684211715117286   0.354813742991261   1.0
H9   H   0.096041007085404   0.493499458673675   0.623664667752628   1.0
H10   H   0.224035638132115   0.795881083000637   0.626287126565700   1.0
H11   H   0.212051443714081   0.227515363405303   0.457050774807136   1.0
H12   H   0.286867953775435   0.434649013653484   0.226852977439364   1.0
H13   H   0.445770027269567   0.516005631897031   0.744130135513984   1.0
H14   H   0.480186313812673   0.730415482074456   0.496470674479319   1.0
H15   H   0.571936409140839   0.226013600103094   0.659778498310864   1.0
H16   H   0.456325381360649   0.090560079891475   0.400020552769732   1.0
N20   N   0.657753064852784   0.418249065675632   0.355999460037701   1.0
