data_1
_audit_creation_method   'Generated by vasp2cif'
_cell_length_a    6.27614960026
_cell_length_b    7.12799654291
_cell_length_c    6.0448181048
_cell_angle_alpha    76.6895488111
_cell_angle_beta    98.5542474467
_cell_angle_gamma    112.624891289
_symmetry_space_group_name_H-M    'P 1'
loop_
_atom_site_label
_atom_site_type_symbol
_atom_site_fract_x
_atom_site_fract_y
_atom_site_fract_z
_atom_site_occupancy
C1   C   0.220783749425301   0.691526800670118   0.534154224399465   1.0
C2   C   0.422813956013272   0.274402374601607   0.402726823400116   1.0
C3   C   0.338508069715132   0.454020047862343   0.362378122099635   1.0
C4   C   0.286783597929968   0.499917280393248   0.581293166245395   1.0
H5   H   0.778542531592159   0.450863148261362   0.432885898938011   1.0
H6   H   0.715984325118868   0.203023939281678   0.554252463109286   1.0
H7   H   0.663548022782194   0.362944148623804   0.686443034838902   1.0
H8   H   0.362604119732971   0.827901939302265   0.459755179956900   1.0
H9   H   0.070841090301009   0.676882773480514   0.411478258040454   1.0
H10   H   0.181286626613307   0.718657619192406   0.690264560964316   1.0
H11   H   0.181297672240675   0.415334761990899   0.248004178967371   1.0
H12   H   0.464758445787453   0.594192632404450   0.269033102301620   1.0
H13   H   0.148348928902969   0.363737727057739   0.665033186389678   1.0
H14   H   0.437592108145424   0.525178867708377   0.704334260225487   1.0
H15   H   0.309100658079920   0.136058911956340   0.506337014569759   1.0
H16   H   0.443229958870788   0.238039110611311   0.243883346234256   1.0
Cl17   Cl   0.348616629327573   0.991619423905767   0.963667734309908   1.0
Cl18   Cl   0.844452651417789   0.953120853314537   0.549264562204037   1.0
Cl19   Cl   0.829119367765593   0.534491612629445   0.006008372830657   1.0
N20   N   0.661021925846121   0.326787447740592   0.529963583940109   1.0
