data_1
_audit_creation_method   'Generated by vasp2cif'
_cell_length_a    6.43720689757
_cell_length_b    5.79579263469
_cell_length_c    5.85401872227
_cell_angle_alpha    81.5419013625
_cell_angle_beta    83.4058948331
_cell_angle_gamma    88.1739050756
_symmetry_space_group_name_H-M    'P 1'
loop_
_atom_site_label
_atom_site_type_symbol
_atom_site_fract_x
_atom_site_fract_y
_atom_site_fract_z
_atom_site_occupancy
C1   C   0.387005247009377   0.710606967252073   0.209481877748163   1.0
C2   C   0.554393841089891   0.893713637268141   0.200206487837401   1.0
C3   C   0.504183596951323   0.062699465112023   0.376231084799860   1.0
H4   H   0.483989261397298   0.968580315664326   0.553813630631154   1.0
H5   H   0.627853659765513   0.189415701119059   0.363450792166850   1.0
H6   H   0.359071017651540   0.156089518527660   0.341714817195025   1.0
H7   H   0.875783924717332   0.893051304147860   0.250421337453018   1.0
H8   H   0.586238325119161   0.988184260769066   0.024282286944640   1.0
H9   H   0.436165231497766   0.580240829727069   0.096516450539035   1.0
H10   H   0.246272128257283   0.798104558715550   0.149113310418660   1.0
H11   H   0.348136382110409   0.622943396449450   0.387460549362745   1.0
H12   H   0.814844255154800   0.662358044168581   0.132651350829246   1.0
H13   H   0.743784856578311   0.670990878668365   0.415601272186376   1.0
Cl14   Cl   0.663883099613346   0.414073889671378   0.744616576956410   1.0
Cl15   Cl   0.007244006473485   0.902687223693884   0.726057484580361   1.0
Cl16   Cl   0.028612070559177   0.284766382777843   0.145583634014247   1.0
N17   N   0.762404136343628   0.770516542194117   0.252401531510873   1.0
