data_1
_audit_creation_method   'Generated by vasp2cif'
_cell_length_a    8.06526336551
_cell_length_b    5.04662629788
_cell_length_c    6.12190556201
_cell_angle_alpha    115.809841891
_cell_angle_beta    74.9276259842
_cell_angle_gamma    106.070137278
_symmetry_space_group_name_H-M    'P 1'
loop_
_atom_site_label
_atom_site_type_symbol
_atom_site_fract_x
_atom_site_fract_y
_atom_site_fract_z
_atom_site_occupancy
C1   C   0.672704094910307   0.350458154544842   0.332157288514543   1.0
C2   C   0.634619136046267   0.119260052774038   0.446015311642428   1.0
C3   C   0.723508478575408   0.230467506127454   0.670555371727645   1.0
H4   H   0.864152861599817   0.293397166261029   0.618371437542109   1.0
H5   H   0.700081859877979   0.058952966102688   0.744002083310395   1.0
H6   H   0.675961116485664   0.429307728080163   0.815304584068541   1.0
H7   H   0.376462741891558   0.924964355234669   0.368011853687581   1.0
H8   H   0.672030599074149   0.909141995865818   0.306136740904205   1.0
H9   H   0.650922401517618   0.567934886905482   0.475684789507586   1.0
H10   H   0.809951548356561   0.372910649888508   0.246414517218905   1.0
H11   H   0.591384287730115   0.283162902365822   0.192322122311229   1.0
H12   H   0.407466211677719   0.899154426115962   0.617815879366800   1.0
H13   H   0.383128399773697   0.224895850450954   0.634184940035314   1.0
N17   N   0.436591977684285   0.035695202686209   0.521413050251585   1.0
