data_1
_audit_creation_method   'Generated by vasp2cif'
_cell_length_a    5.99539254692
_cell_length_b    5.83065448105
_cell_length_c    5.80347252908
_cell_angle_alpha    78.954994854
_cell_angle_beta    102.938703385
_cell_angle_gamma    99.2318289209
_symmetry_space_group_name_H-M    'P 1'
loop_
_atom_site_label
_atom_site_type_symbol
_atom_site_fract_x
_atom_site_fract_y
_atom_site_fract_z
_atom_site_occupancy
Cl1   Cl   0.504537730894434   0.922620532936527   0.995539609488780   1.0
Cl2   Cl   0.995342083406591   0.943484192541924   0.456384996800523   1.0
Cl3   Cl   0.951020176533198   0.428948058947796   0.966697267623822   1.0
H4   H   0.525806471013084   0.687518035866141   0.376335084504525   1.0
H5   H   0.723204450564083   0.380524160466670   0.313142994772448   1.0
H6   H   0.676681009544389   0.556147068623609   0.631052905247635   1.0
H7   H   0.169711219586226   0.456822717081614   0.467403022617844   1.0
H8   H   0.337296111008214   0.320001542430802   0.738704146588745   1.0
H9   H   0.312509959750223   0.628173235187177   0.695321033367058   1.0
H10   H   0.417375179347410   0.331099891490730   0.218029419302170   1.0
H11   H   0.553975649050997   0.174236903469456   0.496696072793441   1.0
C12   C   0.320247798208214   0.481027546892122   0.609270668314380   1.0
C13   C   0.559293614199724   0.339222400429868   0.371585274742991   1.0
N15   N   0.531662606174933   0.532949077672647   0.498336462677905   1.0
