data_1
_audit_creation_method   'Generated by vasp2cif'
_cell_length_a    5.90955459005
_cell_length_b    5.85927212692
_cell_length_c    5.84606345128
_cell_angle_alpha    80.9756451842
_cell_angle_beta    103.490414992
_cell_angle_gamma    100.224416203
_symmetry_space_group_name_H-M    'P 1'
loop_
_atom_site_label
_atom_site_type_symbol
_atom_site_fract_x
_atom_site_fract_y
_atom_site_fract_z
_atom_site_occupancy
Cl1   Cl   0.491828086756859   0.952630441024663   0.938337360774547   1.0
Cl2   Cl   0.921923560164415   0.938285695848801   0.467014051224990   1.0
Cl3   Cl   0.963788335631635   0.434801033988055   0.997516482160927   1.0
H4   H   0.321133579848842   0.601542220874322   0.260366724621205   1.0
H5   H   0.639627107091539   0.417475864097696   0.232141156411950   1.0
H6   H   0.562986821169938   0.700884151262685   0.449096796044594   1.0
H7   H   0.169044553836833   0.343206757039015   0.569920346404685   1.0
H8   H   0.426515567238871   0.446032720277381   0.777533015396494   1.0
H9   H   0.222857543789822   0.641258692122531   0.627891572328986   1.0
H10   H   0.421813944809997   0.208897743735626   0.348895346531051   1.0
H11   H   0.684471716900245   0.322962135665226   0.543049967629005   1.0
C12   C   0.302408464157254   0.492197010092323   0.614436502835209   1.0
C13   C   0.554934881026536   0.361160329499354   0.381973305271635   1.0
N15   N   0.435886215258048   0.556644022308068   0.416910475795912   1.0
