data_1
_audit_creation_method   'Generated by vasp2cif'
_cell_length_a    5.72364520138
_cell_length_b    4.11605849086
_cell_length_c    8.38793680677
_cell_angle_alpha    88.6812021956
_cell_angle_beta    79.878431419
_cell_angle_gamma    85.7410071372
_symmetry_space_group_name_H-M    'P 1'
loop_
_atom_site_label
_atom_site_type_symbol
_atom_site_fract_x
_atom_site_fract_y
_atom_site_fract_z
_atom_site_occupancy
H4   H   0.214610099366631   0.334450233983809   0.530192093745029   1.0
H5   H   0.625428000701852   0.441877419541420   0.411805925953026   1.0
H6   H   0.558228374321367   0.832389606257024   0.407397881577140   1.0
H7   H   0.522914070714499   0.413011606115127   0.704398501401997   1.0
H8   H   0.742169828758527   0.696332767719724   0.638126288102058   1.0
H9   H   0.438295904097266   0.837671327913455   0.706786595867285   1.0
H10   H   0.245306421857571   0.532654724824738   0.335441499264775   1.0
H11   H   0.139315075011361   0.759768957153547   0.516305387296939   1.0
C12   C   0.557171442340440   0.645420911860626   0.643262084061575   1.0
C13   C   0.257363862278012   0.557071497091854   0.462184720674614   1.0
N15   N   0.509467664064367   0.624262593496532   0.472397414251574   1.0
