data_1
_audit_creation_method   'Generated by vasp2cif'
_cell_length_a    7.82880104652
_cell_length_b    4.2514519049
_cell_length_c    6.84868635878
_cell_angle_alpha    121.002646738
_cell_angle_beta    94.2343147992
_cell_angle_gamma    93.438499993
_symmetry_space_group_name_H-M    'P 1'
loop_
_atom_site_label
_atom_site_type_symbol
_atom_site_fract_x
_atom_site_fract_y
_atom_site_fract_z
_atom_site_occupancy
H4   H   0.452541439867161   0.494654800676699   0.272413806683097   1.0
H5   H   0.557809265971706   0.064039963344897   0.639706798190559   1.0
H6   H   0.598536604802689   0.279970061142635   0.504915707904232   1.0
H7   H   0.253326019186616   0.948908034364720   0.512031527941922   1.0
H8   H   0.326906066233541   0.429786992525123   0.653069521029011   1.0
H9   H   0.288253969954006   0.153872984775724   0.345437979049613   1.0
H10   H   0.676712277114966   0.658040540290031   0.307502662780841   1.0
H11   H   0.520247708777831   0.730708512086629   0.135246480611087   1.0
C12   C   0.332007679695458   0.158481761063705   0.501519949769445   1.0
C13   C   0.544172477516952   0.709657950300674   0.286446015148336   1.0
N15   N   0.516470759317421   0.071741050010488   0.494563150442893   1.0
