data_1
_audit_creation_method   'Generated by vasp2cif'
_cell_length_a    5.92473145733
_cell_length_b    4.40318705905
_cell_length_c    7.53282501427
_cell_angle_alpha    80.2271165564
_cell_angle_beta    85.0213404945
_cell_angle_gamma    82.7806276799
_symmetry_space_group_name_H-M    'P 1'
loop_
_atom_site_label
_atom_site_type_symbol
_atom_site_fract_x
_atom_site_fract_y
_atom_site_fract_z
_atom_site_occupancy
H4   H   0.298235790150983   0.129566748843175   0.532568143314663   1.0
H5   H   0.667471141340165   0.341187097983351   0.483011469448066   1.0
H6   H   0.540428824442941   0.678697332914538   0.394143896213969   1.0
H7   H   0.475093170594008   0.360327194594411   0.774251352497757   1.0
H8   H   0.598691563955327   0.711913269302364   0.696617937173407   1.0
H9   H   0.298798475550555   0.699460536708301   0.682850999714148   1.0
H10   H   0.382675649910631   0.259157524933137   0.299269986846937   1.0
H11   H   0.176132911750848   0.492078271664752   0.421437711477523   1.0
C12   C   0.468043076778436   0.571542339876622   0.675207574435042   1.0
C13   C   0.329070412374484   0.327208872950592   0.430053748565854   1.0
N15   N   0.515509327053167   0.484889381626161   0.488811296361476   1.0
