data_1
_audit_creation_method   'Generated by vasp2cif'
_cell_length_a    5.78818994138
_cell_length_b    6.05419942677
_cell_length_c    6.03839151437
_cell_angle_alpha    91.1287999868
_cell_angle_beta    103.655176543
_cell_angle_gamma    103.956239204
_symmetry_space_group_name_H-M    'P 1'
loop_
_atom_site_label
_atom_site_type_symbol
_atom_site_fract_x
_atom_site_fract_y
_atom_site_fract_z
_atom_site_occupancy
C1   C   0.645914372956760   0.507756514846484   0.521454811275767   1.0
C2   C   0.505348598632651   0.626039729858022   0.641357730131084   1.0
H3   H   0.332147323376148   0.605456490295552   0.904334462308746   1.0
H4   H   0.328177909986458   0.884507862440309   0.623679648341998   1.0
H5   H   0.781891808936187   0.445210963157265   0.644154079074596   1.0
H6   H   0.738363777786311   0.620350689930596   0.413040245999234   1.0
H7   H   0.516917546423912   0.360855866733431   0.413938436508261   1.0
H8   H   0.479543603147548   0.866585839918329   0.411786339874197   1.0
H9   H   0.486713291739001   0.397843249350466   0.884410628222085   1.0
Cl10   Cl   0.016109809521275   0.092448301920278   0.517463012807809   1.0
Cl11   Cl   0.018638848496849   0.499831738101619   0.109772445741520   1.0
Cl12   Cl   0.470415922900983   0.053505569145209   0.069527972959541   1.0
N13   N   0.444749406542016   0.543610542392514   0.827272357580171   1.0
N14   N   0.439613316647083   0.808734384197557   0.558658871512556   1.0
