data_1
_audit_creation_method   'Generated by vasp2cif'
_cell_length_a    5.87743406146
_cell_length_b    6.06931354273
_cell_length_c    5.72373883668
_cell_angle_alpha    83.2114694624
_cell_angle_beta    102.656240069
_cell_angle_gamma    91.1698860682
_symmetry_space_group_name_H-M    'P 1'
loop_
_atom_site_label
_atom_site_type_symbol
_atom_site_fract_x
_atom_site_fract_y
_atom_site_fract_z
_atom_site_occupancy
C1   C   0.582842769474951   0.461676387684669   0.422892436091644   1.0
C2   C   0.503564152388940   0.623018924426972   0.567326452972978   1.0
H3   H   0.283407417095262   0.668082447872777   0.793980208175370   1.0
H4   H   0.566654276994967   0.931039677631112   0.680005853398619   1.0
H5   H   0.606601729700344   0.545276729807675   0.250295517662167   1.0
H6   H   0.459119062160923   0.326972871636954   0.392100865569319   1.0
H7   H   0.751628897279772   0.391020337011064   0.521215429659712   1.0
H8   H   0.726707846463384   0.862434845925229   0.478116448861890   1.0
H9   H   0.269115383326657   0.412637144725835   0.682533493789911   1.0
N13   N   0.346178868115679   0.563253866259778   0.696499050387914   1.0
N14   N   0.597101871678525   0.823000080220929   0.566613527545343   1.0
