data_1
_audit_creation_method   'Generated by vasp2cif'
_cell_length_a    6.22627003382
_cell_length_b    3.87199090756
_cell_length_c    8.80869492829
_cell_angle_alpha    110.520906874
_cell_angle_beta    79.1113944524
_cell_angle_gamma    92.8438719725
_symmetry_space_group_name_H-M    'P 1'
loop_
_atom_site_label
_atom_site_type_symbol
_atom_site_fract_x
_atom_site_fract_y
_atom_site_fract_z
_atom_site_occupancy
C1   C   0.449525293418226   0.562324373874709   0.662166237848304   1.0
C2   C   0.471579497975966   0.328821009350904   0.484172375459146   1.0
H3   H   0.340803216085703   0.214999991929524   0.274132464980816   1.0
H4   H   0.197653911061607   0.540213275206476   0.452328749361172   1.0
H5   H   0.418620052763728   0.387502223848955   0.737655662667059   1.0
H6   H   0.602860282156406   0.702947562078357   0.684524198310825   1.0
H7   H   0.317343966276575   0.764995086618505   0.698995198612913   1.0
H8   H   0.660262087772139   0.921932269547000   0.297663743868171   1.0
H9   H   0.751156965158998   0.081094369328241   0.486531266865740   1.0
Cl10   Cl   0.557183840545640   0.714614324183827   0.033460496850907   1.0
Cl11   Cl   0.001224255303157   0.432754552442127   0.162966889566555   1.0
Cl12   Cl   0.951684535019744   0.063893838318314   0.684728277978188   1.0
N13   N   0.327104327984280   0.362340074477210   0.396708458285957   1.0
N14   N   0.637883477722880   0.089879190335481   0.417953894452623   1.0
