data_1
_audit_creation_method   'Generated by vasp2cif'
_cell_length_a    8.25524964974
_cell_length_b    3.85898032946
_cell_length_c    6.24863512393
_cell_angle_alpha    88.3944885072
_cell_angle_beta    87.5800696024
_cell_angle_gamma    88.5896380389
_symmetry_space_group_name_H-M    'P 1'
loop_
_atom_site_label
_atom_site_type_symbol
_atom_site_fract_x
_atom_site_fract_y
_atom_site_fract_z
_atom_site_occupancy
C1   C   0.615637582094188   0.920043943912312   0.557200072072980   1.0
C2   C   0.488802463511782   0.743752792055439   0.437700359008375   1.0
H3   H   0.325796448772493   0.746154677429196   0.690806243232416   1.0
H4   H   0.261984969965056   0.522606330611559   0.474737939308696   1.0
H5   H   0.700552292570535   0.723696665130156   0.621060677455439   1.0
H6   H   0.685782469547306   0.095329934051492   0.451797340095204   1.0
H7   H   0.561015950541787   0.060425224335674   0.692044554143095   1.0
H8   H   0.439131237649754   0.529345478234582   0.150149969258081   1.0
H9   H   0.624226957139349   0.734429377883053   0.157758967192102   1.0
N13   N   0.350477722035059   0.661797583638645   0.539854711045002   1.0
N14   N   0.520035488301481   0.658919664807556   0.235909217991711   1.0
