data_1
_audit_creation_method   'Generated by vasp2cif'
_cell_length_a    5.55303082822
_cell_length_b    5.47088945794
_cell_length_c    5.58001617216
_cell_angle_alpha    90.3824515494
_cell_angle_beta    98.0934365717
_cell_angle_gamma    89.6328006121
_symmetry_space_group_name_H-M    'P 1'
loop_
_atom_site_label
_atom_site_type_symbol
_atom_site_fract_x
_atom_site_fract_y
_atom_site_fract_z
_atom_site_occupancy
H4   H   0.452299009269757   0.498967721453846   0.226362450129139   1.0
H5   H   0.644111348190943   0.351301150481362   0.433592409877683   1.0
H6   H   0.635174162790559   0.658056874416891   0.432658445517496   1.0
H7   H   0.236616456830394   0.328559374732580   0.539462103484882   1.0
H8   H   0.430402862789923   0.506280733452536   0.756574226210502   1.0
H9   H   0.219609883045344   0.655790279708140   0.531855313565718   1.0
C10   C   0.338079334884935   0.497811425791577   0.571576280597833   1.0
N12   N   0.530170647899406   0.501961149025643   0.404639862240718   1.0
