data_1
_audit_creation_method   'Generated by vasp2cif'
_cell_length_a    5.90163571679
_cell_length_b    4.16411492863
_cell_length_c    7.67035880519
_cell_angle_alpha    109.022448855
_cell_angle_beta    84.1150636651
_cell_angle_gamma    79.4961329153
_symmetry_space_group_name_H-M    'P 1'
loop_
_atom_site_label
_atom_site_type_symbol
_atom_site_fract_x
_atom_site_fract_y
_atom_site_fract_z
_atom_site_occupancy
Cl1   Cl   0.956065433132906   0.797592597302888   0.251012709643554   1.0
Cl2   Cl   0.438546873355825   0.918429836720620   0.965859539785754   1.0
Cl3   Cl   0.063431074102368   0.435099975469605   0.717630996130936   1.0
H4   H   0.723111462369424   0.288961664422054   0.459032194927708   1.0
H5   H   0.550001703152937   0.603635516311392   0.652266954280911   1.0
H6   H   0.742101946287065   0.694725080083060   0.510690241325243   1.0
H7   H   0.333185597860165   0.410900641557234   0.387721150329440   1.0
H8   H   0.334834279117501   0.861922417363175   0.460420499559376   1.0
H9   H   0.530174657919432   0.559025073703864   0.255032622885821   1.0
C10   C   0.441360788940265   0.597752323647711   0.394119647147441   1.0
N12   N   0.623254122962301   0.542878888293792   0.513417903160182   1.0
