data_1
_audit_creation_method   'Generated by vasp2cif'
_cell_length_a    7.4452711017
_cell_length_b    4.02644865724
_cell_length_c    5.5694594736
_cell_angle_alpha    84.6504829567
_cell_angle_beta    92.8070541995
_cell_angle_gamma    88.9798323424
_symmetry_space_group_name_H-M    'P 1'
loop_
_atom_site_label
_atom_site_type_symbol
_atom_site_fract_x
_atom_site_fract_y
_atom_site_fract_z
_atom_site_occupancy
H4   H   0.393226935477259   0.008255941364347   0.296581304532545   1.0
H5   H   0.596223852145052   0.044978852828926   0.441869300527294   1.0
H6   H   0.507305273089379   0.358855808826014   0.261418940494195   1.0
H7   H   0.353291196158658   0.080680944951908   0.723285374169699   1.0
H8   H   0.478316252939514   0.453728026523109   0.687149997113458   1.0
H9   H   0.261649147020229   0.428760365975982   0.531654944208746   1.0
C10   C   0.384450894948451   0.293924872495900   0.598995239068685   1.0
N12   N   0.475258808339639   0.165974637348498   0.387126044167871   1.0
