data_1
_audit_creation_method   'Generated by vasp2cif'
_cell_length_a    8.17614800883
_cell_length_b    4.50667505259
_cell_length_c    7.08801019411
_cell_angle_alpha    50.1406335013
_cell_angle_beta    109.737552325
_cell_angle_gamma    120.071801068
_symmetry_space_group_name_H-M    'P 1'
loop_
_atom_site_label
_atom_site_type_symbol
_atom_site_fract_x
_atom_site_fract_y
_atom_site_fract_z
_atom_site_occupancy
Cl1   Cl   0.237287571880579   0.929570771602449   0.043130108605752   1.0
Cl2   Cl   0.944751485972020   0.700476651942118   0.592994947523110   1.0
Cl3   Cl   0.722734304515939   0.446712701784328   0.060756421555240   1.0
H4   H   0.619263761253961   0.653133974615038   0.554265159657838   1.0
H5   H   0.412493569531122   0.656200924627832   0.394519946565957   1.0
H6   H   0.414698284111424   0.339492454724947   0.706188357757817   1.0
H7   H   0.526990793903295   0.274452772052293   0.380429833837731   1.0
H8   H   0.532727449445602   0.941056970862320   0.709778392615434   1.0
H9   H   0.309985601333921   0.936001445983031   0.545101916791282   1.0
C10   C   0.460020370468989   0.126300467902901   0.546046638906581   1.0
N12   N   0.477973144978804   0.470103013216544   0.550792430947133   1.0
