data_1
_audit_creation_method   'Generated by vasp2cif'
_cell_length_a    5.74930850049
_cell_length_b    5.81846853844
_cell_length_c    5.79850573045
_cell_angle_alpha    102.821626768
_cell_angle_beta    93.9483038845
_cell_angle_gamma    93.2935737464
_symmetry_space_group_name_H-M    'P 1'
loop_
_atom_site_label
_atom_site_type_symbol
_atom_site_fract_x
_atom_site_fract_y
_atom_site_fract_z
_atom_site_occupancy
C1   C   0.308710495450811   0.280191571811294   0.325703889223377   1.0
H2   H   0.066149843290063   0.251039966667172   0.564594859144755   1.0
H3   H   0.058991453646065   0.516841076655503   0.307196018487524   1.0
H4   H   0.590880437858928   0.080961154738354   0.312378691346836   1.0
H5   H   0.586396203498445   0.276327799480597   0.122610270068314   1.0
H6   H   0.279264206758498   0.526248029074416   0.121391885318410   1.0
H7   H   0.288725867795065   0.064393808224168   0.561992844521690   1.0
N11   N   0.206461991948956   0.181514333071739   0.485339807237956   1.0
N12   N   0.201662586870462   0.444032410207754   0.236197058175946   1.0
N13   N   0.512048015244147   0.208989528978662   0.249538690100685   1.0
