data_1
_audit_creation_method   'Generated by vasp2cif'
_cell_length_a    5.65809962348
_cell_length_b    5.64465189496
_cell_length_c    5.99080028928
_cell_angle_alpha    88.953373807
_cell_angle_beta    94.9792133919
_cell_angle_gamma    79.6632773832
_symmetry_space_group_name_H-M    'P 1'
loop_
_atom_site_label
_atom_site_type_symbol
_atom_site_fract_x
_atom_site_fract_y
_atom_site_fract_z
_atom_site_occupancy
C1   C   0.759885020731424   0.291226858043821   0.637575122913127   1.0
H2   H   0.855679007102694   0.187052406879701   0.328833179550777   1.0
H3   H   0.008592236943699   0.483651344468477   0.533735744138376   1.0
H4   H   0.502893383247908   0.144161173359812   0.781988673589574   1.0
H5   H   0.621722844357365   0.357448908347543   0.938767385446390   1.0
H6   H   0.900233438180869   0.563127005263773   0.789422326084548   1.0
H7   H   0.661312162078886   0.023561573485225   0.445058612458297   1.0
N11   N   0.745732821648325   0.167154396752942   0.450184816551221   1.0
N12   N   0.902622258607948   0.456335007778648   0.655614110379545   1.0
N13   N   0.631815322167085   0.246901033762768   0.807220427634562   1.0
