data_1
_audit_creation_method   'Generated by vasp2cif'
_cell_length_a    8.90750410516
_cell_length_b    4.00305648104
_cell_length_c    5.90714083834
_cell_angle_alpha    77.462106736
_cell_angle_beta    96.4636189848
_cell_angle_gamma    116.711294807
_symmetry_space_group_name_H-M    'P 1'
loop_
_atom_site_label
_atom_site_type_symbol
_atom_site_fract_x
_atom_site_fract_y
_atom_site_fract_z
_atom_site_occupancy
C1   C   0.467240352128712   0.197311633422643   0.531550674170497   1.0
H2   H   0.365098655209529   0.344171919711428   0.768435402629152   1.0
H3   H   0.581384355561987   0.569232476416943   0.759025862126975   1.0
H4   H   0.611948469766027   0.134518276877088   0.309521546117203   1.0
H5   H   0.723476929611785   0.441753888688560   0.500079958763195   1.0
H6   H   0.209896103973556   0.915230591736702   0.517142862840160   1.0
H7   H   0.312300056768336   0.823349384103111   0.321725290845635   1.0
Cl8   Cl   0.967701574641630   0.986697860134271   0.586120302228295   1.0
Cl9   Cl   0.216598055870087   0.521266732920353   0.008969144571900   1.0
Cl10   Cl   0.731469748212938   0.039884697812241   0.007347498631809   1.0
N11   N   0.471692857150067   0.377198780806062   0.700797012814405   1.0
N12   N   0.319433530117152   0.953412736310000   0.455035616629040   1.0
N13   N   0.611092875653469   0.254670169777249   0.443764179565079   1.0
