data_1
_audit_creation_method   'Generated by vasp2cif'
_cell_length_a    5.36458244364
_cell_length_b    5.4456479861
_cell_length_c    5.36126893303
_cell_angle_alpha    98.37489825
_cell_angle_beta    88.4406351011
_cell_angle_gamma    92.1695826897
_symmetry_space_group_name_H-M    'P 1'
loop_
_atom_site_label
_atom_site_type_symbol
_atom_site_fract_x
_atom_site_fract_y
_atom_site_fract_z
_atom_site_occupancy
Cl1   Cl   0.036063340119952   0.969561799912320   0.560391163872474   1.0
Cl2   Cl   0.518800696203016   0.919775044473120   0.026676949408497   1.0
Cl3   Cl   0.001723361227654   0.431875838157218   0.109969938637263   1.0
H4   H   0.338688836205087   0.509224806004184   0.349473277178305   1.0
H5   H   0.656760555055655   0.525498685401956   0.350493737027349   1.0
H6   H   0.488614689945749   0.704750220801955   0.580070340485825   1.0
H7   H   0.349004115419582   0.244607236524637   0.600808995054464   1.0
N9   N   0.495250106974439   0.536003168845291   0.463048787701396   1.0
