data_1
_audit_creation_method   'Generated by vasp2cif'
_cell_length_a    6.87050138551
_cell_length_b    4.16685032016
_cell_length_c    5.58942126933
_cell_angle_alpha    94.2926191638
_cell_angle_beta    96.3046412418
_cell_angle_gamma    71.4746330609
_symmetry_space_group_name_H-M    'P 1'
loop_
_atom_site_label
_atom_site_type_symbol
_atom_site_fract_x
_atom_site_fract_y
_atom_site_fract_z
_atom_site_occupancy
H4   H   0.433517181208991   0.390760989943985   0.593762596840314   1.0
H5   H   0.658395501144511   0.180769596825755   0.474293379985085   1.0
H6   H   0.663825402220404   0.317016074432004   0.769736160502752   1.0
H7   H   0.484260604980698   0.964191985595320   0.836051946735274   1.0
N9   N   0.581872272504050   0.223481502845303   0.628863969185211   1.0
