data_1
_audit_creation_method   'Generated by vasp2cif'
_cell_length_a    5.60182327548
_cell_length_b    3.95404803017
_cell_length_c    6.91456835893
_cell_angle_alpha    105.020135145
_cell_angle_beta    83.4975631758
_cell_angle_gamma    93.5380048965
_symmetry_space_group_name_H-M    'P 1'
loop_
_atom_site_label
_atom_site_type_symbol
_atom_site_fract_x
_atom_site_fract_y
_atom_site_fract_z
_atom_site_occupancy
Cl1   Cl   0.853540048667824   0.888634409841586   0.777257936539584   1.0
Cl2   Cl   0.310780734588242   0.570901968415008   0.987288533004744   1.0
Cl3   Cl   0.921435081846937   0.155991042595652   0.338516750619313   1.0
H4   H   0.418525466700842   0.189337166550416   0.510949432101143   1.0
H5   H   0.512988870503577   0.990367721622270   0.677767848321650   1.0
H6   H   0.210781536569165   0.980898440259587   0.648298083620858   1.0
H7   H   0.335283958228693   0.654972627117651   0.312908543652455   1.0
N9   N   0.386023055208795   0.981724962331377   0.577306429546773   1.0
