data_1
_audit_creation_method   'Generated by vasp2cif'
_cell_length_a    7.04768485378
_cell_length_b    3.96109000496
_cell_length_c    5.63744664716
_cell_angle_alpha    82.4551181051
_cell_angle_beta    79.4690895667
_cell_angle_gamma    73.8634380381
_symmetry_space_group_name_H-M    'P 1'
loop_
_atom_site_label
_atom_site_type_symbol
_atom_site_fract_x
_atom_site_fract_y
_atom_site_fract_z
_atom_site_occupancy
H4   H   0.440672227126804   0.108975646394555   0.560152262525570   1.0
H5   H   0.602416842237609   0.303602313424605   0.642153945811323   1.0
H6   H   0.448473361988192   0.118869140619225   0.861884312975782   1.0
H7   H   0.719627021637422   0.696154467280678   0.838934052193487   1.0
N9   N   0.531700018411414   0.101946082436051   0.688045770947525   1.0
