data_1
_audit_creation_method   'Generated by vasp2cif'
_cell_length_a    5.58657043583
_cell_length_b    4.02326107996
_cell_length_c    6.8606311931
_cell_angle_alpha    105.343785753
_cell_angle_beta    80.8909008989
_cell_angle_gamma    94.6398516801
_symmetry_space_group_name_H-M    'P 1'
loop_
_atom_site_label
_atom_site_type_symbol
_atom_site_fract_x
_atom_site_fract_y
_atom_site_fract_z
_atom_site_occupancy
Cl1   Cl   0.839257814568967   0.008605644878408   0.821841520865611   1.0
Cl2   Cl   0.300890321271922   0.648377940810327   0.973007518480649   1.0
Cl3   Cl   0.944214707562622   0.267113419343218   0.379317231496209   1.0
H4   H   0.236267900259989   0.134719624664150   0.566580373410666   1.0
H5   H   0.543631234093525   0.176140412476933   0.566719144072607   1.0
H6   H   0.364014951976138   0.984128822775880   0.735463313789445   1.0
H7   H   0.263541924219560   0.605536604829794   0.405786015230198   1.0
N9   N   0.387699882368914   0.025243859550827   0.590135250689919   1.0
