data_1
_audit_creation_method   'Generated by vasp2cif'
_cell_length_a    7.08499263706
_cell_length_b    3.94552263932
_cell_length_c    5.63315269573
_cell_angle_alpha    82.2347380675
_cell_angle_beta    95.9903851706
_cell_angle_gamma    73.7601554201
_symmetry_space_group_name_H-M    'P 1'
loop_
_atom_site_label
_atom_site_type_symbol
_atom_site_fract_x
_atom_site_fract_y
_atom_site_fract_z
_atom_site_occupancy
Cl1   Cl   0.291204608422646   0.045001117742913   0.936871507550201   1.0
Cl2   Cl   0.924356130352223   0.791009103146756   0.554844181514824   1.0
Cl3   Cl   0.733692441630069   0.312829749985959   0.002461419327886   1.0
H4   H   0.616458917858353   0.483742405305357   0.318209090557616   1.0
H5   H   0.624473534297053   0.481300825015460   0.624448891085230   1.0
H6   H   0.348560671523600   0.341110874433859   0.615323490250248   1.0
H7   H   0.463905467410243   0.831727504061860   0.419959404221636   1.0
N9   N   0.534032488636250   0.558009157467637   0.455823974433990   1.0
