data_1
_audit_creation_method   'Generated by vasp2cif'
_cell_length_a    5.67627709642
_cell_length_b    5.68738521074
_cell_length_c    5.55868356699
_cell_angle_alpha    79.123876299
_cell_angle_beta    81.4083042785
_cell_angle_gamma    84.1796567202
_symmetry_space_group_name_H-M    'P 1'
loop_
_atom_site_label
_atom_site_type_symbol
_atom_site_fract_x
_atom_site_fract_y
_atom_site_fract_z
_atom_site_occupancy
Cl2   Cl   0.643593732291940   0.901237025139196   0.517226654165221   1.0
Cl3   Cl   0.057312287637700   0.351020765010048   0.469891688658080   1.0
Cl4   Cl   0.616866699365666   0.417101316219487   0.044898248488032   1.0
N5   N   0.102411403675148   0.733091357881364   0.850698359859130   1.0
N6   N   0.243525798435449   0.938809565813507   0.118120965519005   1.0
H7   H   0.243292602367674   0.607651841023113   0.854985368523806   1.0
H8   H   0.395160874148886   0.828202298086069   0.131632044859671   1.0
H9   H   0.973222471070841   0.721035603982095   0.746187626377704   1.0
H10   H   0.210396065472310   0.069388003077520   0.224294952586185   1.0
H11   H   0.924448042287366   0.029584032986932   0.978024598468870   1.0
C12   C   0.082495645746718   0.905394376121421   0.982104219006651   1.0
