data_1
_audit_creation_method   'Generated by vasp2cif'
_cell_length_a    5.6661091315
_cell_length_b    5.58822222607
_cell_length_c    5.65283908789
_cell_angle_alpha    89.1954791022
_cell_angle_beta    104.179434206
_cell_angle_gamma    90.7837641377
_symmetry_space_group_name_H-M    'P 1'
loop_
_atom_site_label
_atom_site_type_symbol
_atom_site_fract_x
_atom_site_fract_y
_atom_site_fract_z
_atom_site_occupancy
N5   N   0.134509919226638   0.832058414443670   0.007599949654781   1.0
N6   N   0.867802415340393   0.859840357722563   0.260877413239277   1.0
H7   H   0.200912784383257   0.668522859145853   0.072124486214743   1.0
H8   H   0.911414102731274   0.697337765187695   0.343571398274753   1.0
H9   H   0.206782546147939   0.909390893840615   0.877139095129877   1.0
H10   H   0.742058787469326   0.958573653446623   0.315554540647473   1.0
H11   H   0.919073471753869   0.122294698297821   0.018612109463195   1.0
C12   C   0.971438595359325   0.945647143928456   0.092723706105136   1.0
