data_1
_audit_creation_method   'Generated by vasp2cif'
_cell_length_a    5.58506168194
_cell_length_b    5.6175063319
_cell_length_c    6.19353996002
_cell_angle_alpha    101.894426752
_cell_angle_beta    99.4180143181
_cell_angle_gamma    71.0527746048
_symmetry_space_group_name_H-M    'P 1'
loop_
_atom_site_label
_atom_site_type_symbol
_atom_site_fract_x
_atom_site_fract_y
_atom_site_fract_z
_atom_site_occupancy
Cl2   Cl   0.488942947306654   0.907759681793650   0.189705580917696   1.0
Cl3   Cl   0.550137639985778   0.289216301475335   0.778563663429566   1.0
Cl4   Cl   0.956819947013038   0.404504600802831   0.444801843576030   1.0
N5   N   0.936122671564249   0.691459532137024   0.998625287561225   1.0
N6   N   0.195531350932072   0.853144780315809   0.673789437446963   1.0
H7   H   0.137413478632396   0.806101982366073   0.804597025708709   1.0
H8   H   0.040854762154446   0.975288517840539   0.598327837777028   1.0
H9   H   0.871612443520213   0.534675937817070   0.951360064443833   1.0
H10   H   0.324662644686377   0.952226598263650   0.732348635326595   1.0
H11   H   0.835751537229278   0.063603684788788   0.164491019533060   1.0
C12   C   0.793354427881717   0.884406726523473   0.105845027632626   1.0
