data_1
_audit_creation_method   'Generated by vasp2cif'
_cell_length_a    6.21728289474
_cell_length_b    6.16677903974
_cell_length_c    6.24109707392
_cell_angle_alpha    92.3015155689
_cell_angle_beta    90.2743495773
_cell_angle_gamma    88.8973623369
_symmetry_space_group_name_H-M    'P 1'
loop_
_atom_site_label
_atom_site_type_symbol
_atom_site_fract_x
_atom_site_fract_y
_atom_site_fract_z
_atom_site_occupancy
C1   C   0.280308327491348   0.368217635875517   0.467676971239769   1.0
C2   C   0.628162646563879   0.471553986276668   0.306869861691702   1.0
C3   C   0.570253898255110   0.524091021462411   0.697517166661086   1.0
C4   C   0.374289874487459   0.754931279622639   0.444578206568551   1.0
H5   H   0.507324948285103   0.867131157788172   0.457864708098633   1.0
H6   H   0.301800282130543   0.756249906019832   0.285915529660542   1.0
H7   H   0.205909879592035   0.374510160411013   0.309816891190174   1.0
H8   H   0.548891280401577   0.477546786283433   0.151316098239128   1.0
H9   H   0.450029976671125   0.571056069667904   0.817763212375432   1.0
H10   H   0.700305635954990   0.639017580981246   0.699285810600500   1.0
H11   H   0.755391694367567   0.590251022258705   0.320175454769426   1.0
H12   H   0.255093771877917   0.793403171562524   0.567402628996263   1.0
H13   H   0.632043208222477   0.360430867831482   0.720454648335725   1.0
H14   H   0.347226382973872   0.207328979688334   0.494388193220843   1.0
H15   H   0.692653543656192   0.309022138301060   0.332095101810275   1.0
H16   H   0.165947932580586   0.414593222592046   0.593580841264050   1.0
Cl17   Cl   0.360502652085032   0.063452490202430   0.958164932005367   1.0
Cl18   Cl   0.030591742407459   0.613350171684466   0.976187534755994   1.0
Cl19   Cl   0.894973792372589   0.018876601230282   0.594511827034083   1.0
N20   N   0.462907473927778   0.528386929542577   0.478853305616816   1.0
