data_1
_audit_creation_method   'Generated by vasp2cif'
_cell_length_a    6.50896993028
_cell_length_b    5.34238786975
_cell_length_c    7.0698331062
_cell_angle_alpha    87.6662134983
_cell_angle_beta    89.7571664778
_cell_angle_gamma    85.9043282316
_symmetry_space_group_name_H-M    'P 1'
loop_
_atom_site_label
_atom_site_type_symbol
_atom_site_fract_x
_atom_site_fract_y
_atom_site_fract_z
_atom_site_occupancy
C1   C   0.440322660102768   0.364661077164452   0.472704299003343   1.0
C2   C   0.570316039292799   0.726926338933831   0.633433751685262   1.0
C3   C   0.349395175223477   0.440526029851922   0.810262609602454   1.0
C4   C   0.200130197989469   0.724847718301284   0.552530593452985   1.0
H5   H   0.231796196640581   0.810761529630859   0.414143046595984   1.0
H6   H   0.165802768127058   0.868106915231689   0.655320368725394   1.0
H7   H   0.467164407805718   0.459326930985423   0.336360336122059   1.0
H8   H   0.599467695941814   0.812812667992607   0.494602750310829   1.0
H9   H   0.222323856465348   0.320894548746634   0.796923705186684   1.0
H10   H   0.309547810097483   0.588282388481730   0.908772307426584   1.0
H11   H   0.529331921138676   0.868312796343693   0.735959055445072   1.0
H12   H   0.072350271762493   0.604357561572433   0.543880463336721   1.0
H13   H   0.488940649257953   0.332286235544589   0.857154293465396   1.0
H14   H   0.578881520007725   0.253964944411642   0.518742837951156   1.0
H15   H   0.703519139706614   0.607623688430148   0.683190641213112   1.0
H16   H   0.308932491353607   0.250863665018211   0.463141136818016   1.0
N20   N   0.390032346157888   0.563557958698329   0.617040530013812   1.0
