data_1
_audit_creation_method   'Generated by vasp2cif'
_cell_length_a    3.82818922616
_cell_length_b    5.92148714504
_cell_length_c    7.54205328823
_cell_angle_alpha    98.6226428463
_cell_angle_beta    108.705001119
_cell_angle_gamma    70.3542340623
_symmetry_space_group_name_H-M    'P 1'
loop_
_atom_site_label
_atom_site_type_symbol
_atom_site_fract_x
_atom_site_fract_y
_atom_site_fract_z
_atom_site_occupancy
Cl1   Cl   0.423096601062781   0.989461113850545   0.410547982962427   1.0
Cl2   Cl   0.078203082920226   0.000709533830623   0.862626276510042   1.0
Cl3   Cl   0.942208364337915   0.559850178356513   0.116905188736837   1.0
H4   H   0.294242323541788   0.490015253691546   0.463440934655757   1.0
H5   H   0.286947841781803   0.723998917419280   0.614240558310073   1.0
H6   H   0.962703483883075   0.476823845515440   0.675047432703934   1.0
H7   H   0.391578208657606   0.252144921376846   0.708538544142527   1.0
H8   H   0.360919319141935   0.497318575019840   0.853230757417776   1.0
N10   N   0.410809657673205   0.541955229340857   0.599922013900667   1.0
N11   N   0.266940202059843   0.435838620879657   0.716100528548701   1.0
