data_1
_audit_creation_method   'Generated by vasp2cif'
_cell_length_a    7.63856553522
_cell_length_b    5.41490953447
_cell_length_c    5.40445101544
_cell_angle_alpha    89.7634862781
_cell_angle_beta    46.1612817688
_cell_angle_gamma    95.6320635699
_symmetry_space_group_name_H-M    'P 1'
loop_
_atom_site_label
_atom_site_type_symbol
_atom_site_fract_x
_atom_site_fract_y
_atom_site_fract_z
_atom_site_occupancy
H4   H   0.512234790580681   0.691439142654212   0.156082424152384   1.0
H5   H   0.470579596589580   0.667950103804286   0.895180008166869   1.0
H6   H   0.674119105367017   0.313511033655013   0.997845213132634   1.0
H7   H   0.642712111323912   0.301157304900829   0.720520917992271   1.0
H8   H   0.844106476908554   0.527848751765254   0.651736501024225   1.0
N10   N   0.468007514690713   0.566523217934784   0.058673429025972   1.0
N11   N   0.673931213369677   0.420596951375046   0.839335261836828   1.0
