data_1
_audit_creation_method   'Generated by vasp2cif'
_cell_length_a    3.82423032293
_cell_length_b    5.96041335097
_cell_length_c    7.4859051445
_cell_angle_alpha    81.4530363894
_cell_angle_beta    107.62490105
_cell_angle_gamma    110.190438757
_symmetry_space_group_name_H-M    'P 1'
loop_
_atom_site_label
_atom_site_type_symbol
_atom_site_fract_x
_atom_site_fract_y
_atom_site_fract_z
_atom_site_occupancy
H4   H   0.313875503559602   0.470113411951770   0.527663627748605   1.0
H5   H   0.333206892076973   0.710774680173334   0.384143042802806   1.0
H6   H   0.654101545903006   0.465487138873860   0.315824569036066   1.0
H7   H   0.213708445447867   0.248287907758682   0.269545203416600   1.0
H8   H   0.275379856965314   0.503902341297196   0.137472643973384   1.0
N10   N   0.204921257871884   0.528803273998178   0.392888113021306   1.0
N11   N   0.351930366836676   0.430653119856976   0.271862110240171   1.0
