data_1
_audit_creation_method   'Generated by vasp2cif'
_cell_length_a    7.10512656637
_cell_length_b    5.79997885191
_cell_length_c    4.00425149626
_cell_angle_alpha    99.0504172516
_cell_angle_beta    77.7229200784
_cell_angle_gamma    95.9283846729
_symmetry_space_group_name_H-M    'P 1'
loop_
_atom_site_label
_atom_site_type_symbol
_atom_site_fract_x
_atom_site_fract_y
_atom_site_fract_z
_atom_site_occupancy
H4   H   0.471771833802464   0.516501223187774   0.144081517634220   1.0
H5   H   0.625546608155446   0.748233766082762   0.079831639204528   1.0
H6   H   0.795272334773983   0.396770811400749   0.925748649191178   1.0
H7   H   0.643590583987631   0.302194890872236   0.652111568645651   1.0
H8   H   0.800151916754288   0.537605681448554   0.593552216781539   1.0
N10   N   0.557658588845506   0.605054079699279   0.958324957408173   1.0
N11   N   0.708587365282540   0.448926305384809   0.776634090691068   1.0
