data_1
_audit_creation_method   'Generated by vasp2cif'
_cell_length_a    6.88830413732
_cell_length_b    5.73918557485
_cell_length_c    4.23059882406
_cell_angle_alpha    89.5381854049
_cell_angle_beta    71.5401066208
_cell_angle_gamma    93.3533388494
_symmetry_space_group_name_H-M    'P 1'
loop_
_atom_site_label
_atom_site_type_symbol
_atom_site_fract_x
_atom_site_fract_y
_atom_site_fract_z
_atom_site_occupancy
H4   H   0.552148953788603   0.508340184922787   0.883113607947116   1.0
H5   H   0.391376316494643   0.722987117684710   0.982001562046044   1.0
H6   H   0.214085010967118   0.349842126148879   0.154331659514924   1.0
H7   H   0.370021259910246   0.311862091960066   0.387756466338764   1.0
H8   H   0.202980081536005   0.523566056776659   0.468512370999896   1.0
N10   N   0.463788126372890   0.601780451748951   0.075588516159073   1.0
N11   N   0.303046313678294   0.434781871393447   0.280696391469235   1.0
