data_1
_audit_creation_method   'Generated by vasp2cif'
_cell_length_a    7.35532571388
_cell_length_b    3.8326041562
_cell_length_c    5.73591645933
_cell_angle_alpha    103.842465194
_cell_angle_beta    95.2877071166
_cell_angle_gamma    77.2379152569
_symmetry_space_group_name_H-M    'P 1'
loop_
_atom_site_label
_atom_site_type_symbol
_atom_site_fract_x
_atom_site_fract_y
_atom_site_fract_z
_atom_site_occupancy
Cl1   Cl   0.408460009774821   0.348549233654474   0.003056904970435   1.0
Cl2   Cl   0.113258653593235   0.790897230759491   0.570367757533688   1.0
Cl3   Cl   0.859266350297190   0.594257453858866   0.011794061465956   1.0
H4   H   0.456549313200682   0.692162671732170   0.476697253605543   1.0
H5   H   0.588527413605441   0.759091717021505   0.726001004789047   1.0
H6   H   0.664269190042930   0.140311393801923   0.480441624826540   1.0
H7   H   0.733184805581715   0.340746863068475   0.276385476921213   1.0
H8   H   0.840724326017757   0.371578674541126   0.548545781128631   1.0
N10   N   0.587918771571495   0.723545474222561   0.542924422939763   1.0
N11   N   0.713545167874152   0.366968389115605   0.456270878912996   1.0
