data_1
_audit_creation_method   'Generated by vasp2cif'
_cell_length_a    7.15675371619
_cell_length_b    5.60996238663
_cell_length_c    4.24179818904
_cell_angle_alpha    90.8479137978
_cell_angle_beta    104.261678409
_cell_angle_gamma    73.511601162
_symmetry_space_group_name_H-M    'P 1'
loop_
_atom_site_label
_atom_site_type_symbol
_atom_site_fract_x
_atom_site_fract_y
_atom_site_fract_z
_atom_site_occupancy
Cl1   Cl   0.526023825752723   0.979466515071302   0.141006062498150   1.0
Cl2   Cl   0.067908920168755   0.010989417718228   0.402113084531699   1.0
Cl3   Cl   0.933958667688664   0.561206373578301   0.863942468489014   1.0
H4   H   0.532108424829708   0.559052129137193   0.471847272753294   1.0
H5   H   0.450424248917273   0.647889505545670   0.794280643983257   1.0
H6   H   0.185466780260562   0.577520001309679   0.388785085128482   1.0
H7   H   0.337136008993745   0.285652179372598   0.361962545821179   1.0
H8   H   0.255159576227079   0.361344360871023   0.694946047331015   1.0
N10   N   0.488795043447915   0.495543617510315   0.660238176978901   1.0
N11   N   0.303084798306067   0.429449435556158   0.514441655910588   1.0
