data_1
_audit_creation_method   'Generated by vasp2cif'
_cell_length_a    7.59539067855
_cell_length_b    3.8038679336
_cell_length_c    5.51212798024
_cell_angle_alpha    90.8765079315
_cell_angle_beta    90.8614305309
_cell_angle_gamma    77.8144589104
_symmetry_space_group_name_H-M    'P 1'
loop_
_atom_site_label
_atom_site_type_symbol
_atom_site_fract_x
_atom_site_fract_y
_atom_site_fract_z
_atom_site_occupancy
H4   H   0.576138948116309   0.466710189149715   0.677461240540609   1.0
H5   H   0.588565996722615   0.456424843373320   0.379377803751069   1.0
H6   H   0.279645932335143   0.771829490673085   0.654710558841018   1.0
H7   H   0.415470984773577   0.010872613556174   0.513544433364075   1.0
H8   H   0.290844750902210   0.760588530200451   0.350356585988834   1.0
N10   N   0.504578272522195   0.441395277578835   0.520995085214579   1.0
N11   N   0.364017620154478   0.773744004829084   0.509207817852314   1.0
