data_1
_audit_creation_method   'Generated by vasp2cif'
_cell_length_a    5.82895235144
_cell_length_b    3.8690384127
_cell_length_c    7.23307262455
_cell_angle_alpha    99.7460227486
_cell_angle_beta    91.4033262052
_cell_angle_gamma    71.917711256
_symmetry_space_group_name_H-M    'P 1'
loop_
_atom_site_label
_atom_site_type_symbol
_atom_site_fract_x
_atom_site_fract_y
_atom_site_fract_z
_atom_site_occupancy
H4   H   0.485064875379378   0.943745436479681   0.347690634086826   1.0
H5   H   0.261109673655733   0.114647342742563   0.506950920422528   1.0
H6   H   0.749576063548300   0.100946607223944   0.555294147628848   1.0
H7   H   0.513876418148479   0.489614203516644   0.549836119164623   1.0
H8   H   0.540341721422540   0.248587758346473   0.730415251334781   1.0
N10   N   0.441698618063205   0.974025268972764   0.487550208354897   1.0
N11   N   0.567422511491063   0.224464305293993   0.586969828256008   1.0
