data_1
_audit_creation_method   'Generated by vasp2cif'
_cell_length_a    6.84639958349
_cell_length_b    5.74342916094
_cell_length_c    4.28873679698
_cell_angle_alpha    66.9155375305
_cell_angle_beta    108.85437894
_cell_angle_gamma    102.91371848
_symmetry_space_group_name_H-M    'P 1'
loop_
_atom_site_label
_atom_site_type_symbol
_atom_site_fract_x
_atom_site_fract_y
_atom_site_fract_z
_atom_site_occupancy
N5   N   0.396837618028989   0.469714013482779   0.752583065548713   1.0
H6   H   0.236108711916678   0.449320265460280   0.682599754133193   1.0
H7   H   0.451497269361894   0.292778973655359   0.866464454018846   1.0
H8   H   0.448860354185364   0.577851209280723   0.531043210162352   1.0
H9   H   0.452973461556582   0.569017441733159   0.924870158438353   1.0
