data_1
_audit_creation_method   'Generated by vasp2cif'
_cell_length_a    5.43189076678
_cell_length_b    5.43067189119
_cell_length_c    5.43286239623
_cell_angle_alpha    83.9376546289
_cell_angle_beta    83.9934804574
_cell_angle_gamma    84.0685039763
_symmetry_space_group_name_H-M    'P 1'
loop_
_atom_site_label
_atom_site_type_symbol
_atom_site_fract_x
_atom_site_fract_y
_atom_site_fract_z
_atom_site_occupancy
Cl2   Cl   0.003823538288827   0.915740565378748   0.510730453636064   1.0
Cl3   Cl   0.455309528538777   0.004685198727010   0.971065473288277   1.0
Cl4   Cl   0.915775927493186   0.455284286852823   0.058860979043544   1.0
N5   N   0.521481745144094   0.522151027750859   0.575559744166469   1.0
H6   H   0.357062524785484   0.628437818357433   0.538968088039560   1.0
H7   H   0.484113510533632   0.358841087759842   0.683978007268173   1.0
H8   H   0.625393412999159   0.482602711979936   0.410733567277774   1.0
H9   H   0.623532535290622   0.622719680449272   0.672213662280299   1.0
