data_1
_audit_creation_method   'Generated by vasp2cif'
_cell_length_a    5.94673953003
_cell_length_b    5.99584186908
_cell_length_c    6.23482476881
_cell_angle_alpha    100.871199475
_cell_angle_beta    87.7610749058
_cell_angle_gamma    84.2013058174
_symmetry_space_group_name_H-M    'P 1'
loop_
_atom_site_label
_atom_site_type_symbol
_atom_site_fract_x
_atom_site_fract_y
_atom_site_fract_z
_atom_site_occupancy
C1   C   0.306515017693684   0.349193957330712   0.462858014671618   1.0
C2   C   0.566217801897928   0.605807502404865   0.327906817534746   1.0
C3   C   0.655977589971855   0.433604002511842   0.652329605759363   1.0
H4   H   0.171022956001231   0.422976714579541   0.376631262826074   1.0
H5   H   0.427076532197617   0.669927820014891   0.240472205490583   1.0
H6   H   0.580067093894584   0.399917457097189   0.803175587228615   1.0
H7   H   0.774497276773779   0.559872798373249   0.687130426997335   1.0
H8   H   0.673245098706467   0.738878599594777   0.386315945004995   1.0
H9   H   0.379603946002291   0.665618081019041   0.622897114146689   1.0
H10   H   0.739414001405919   0.275254742509780   0.553340805442282   1.0
H11   H   0.399466661282929   0.200276777336782   0.357302916818185   1.0
H12   H   0.666580801834158   0.460879214170248   0.223310178160070   1.0
H13   H   0.240527547613311   0.305905133290487   0.612665676749181   1.0
N17   N   0.470055211791362   0.524907794546650   0.524282982467476   1.0
