data_1
_audit_creation_method   'Generated by vasp2cif'
_cell_length_a    6.19339445457
_cell_length_b    6.16669556513
_cell_length_c    5.90741531953
_cell_angle_alpha    93.3695117689
_cell_angle_beta    92.975498202
_cell_angle_gamma    104.85318576
_symmetry_space_group_name_H-M    'P 1'
loop_
_atom_site_label
_atom_site_type_symbol
_atom_site_fract_x
_atom_site_fract_y
_atom_site_fract_z
_atom_site_occupancy
C1   C   0.423691340324204   0.394951232110813   0.719346533833324   1.0
C2   C   0.368489229844293   0.608626824730727   0.384915996356831   1.0
C3   C   0.641945395556434   0.371158384181186   0.381129410334737   1.0
H4   H   0.350180186963115   0.507507495978203   0.819114416007451   1.0
H5   H   0.298578444673893   0.716075700026870   0.496477370203436   1.0
H6   H   0.762293216412274   0.316599033328430   0.489919201227600   1.0
H7   H   0.725500245904591   0.467823243096276   0.247553583939506   1.0
H8   H   0.456290027963782   0.703508997774406   0.252334447190521   1.0
H9   H   0.658218772961924   0.655575827057326   0.593395864880023   1.0
H10   H   0.511453098891238   0.225568469604958   0.308670144867683   1.0
H11   H   0.295148634084207   0.249183266254015   0.645203944152641   1.0
H12   H   0.235773944494191   0.465828451040387   0.310839277689304   1.0
H13   H   0.550794244620789   0.343139023511554   0.819852182889313   1.0
Cl14   Cl   0.971509838156692   0.960954811720974   0.406771907249379   1.0
Cl15   Cl   0.984185667989422   0.604315518835577   0.911342887491266   1.0
Cl16   Cl   0.612626682569669   0.955030547090594   0.915115079180396   1.0
N17   N   0.533440348578317   0.518934971392433   0.524891907778809   1.0
