data_1
_audit_creation_method   'Generated by vasp2cif'
_cell_length_a    6.17477031142
_cell_length_b    4.9296272525
_cell_length_c    7.38381962671
_cell_angle_alpha    90.7425798439
_cell_angle_beta    93.825803268
_cell_angle_gamma    75.2180838151
_symmetry_space_group_name_H-M    'P 1'
loop_
_atom_site_label
_atom_site_type_symbol
_atom_site_fract_x
_atom_site_fract_y
_atom_site_fract_z
_atom_site_occupancy
C1   C   0.531077449249956   0.873640628402498   0.387700790857281   1.0
C2   C   0.452517376688448   0.914569837748729   0.715885593789558   1.0
C3   C   0.258902857071966   0.634993956308612   0.510784401673682   1.0
H4   H   0.598986271659243   0.056058523710597   0.406028446820017   1.0
H5   H   0.321453081925533   0.929638805836966   0.808971439441798   1.0
H6   H   0.200751934738022   0.613206292274953   0.370618672656576   1.0
H7   H   0.121860831820293   0.666239357181141   0.600588069553879   1.0
H8   H   0.587556357639180   0.726826812458860   0.742785114165144   1.0
H9   H   0.223888337637177   0.058903794311156   0.493944074197458   1.0
H10   H   0.393448693901704   0.453352189025658   0.553868056961441   1.0
H11   H   0.663125612562794   0.680924219116577   0.413307052580244   1.0
H12   H   0.517220605538668   0.099832795458894   0.724096328010944   1.0
H13   H   0.450896584027746   0.873395376727636   0.251853426450197   1.0
Cl14   Cl   0.936915596681168   0.184304543244622   0.236849300812516   1.0
Cl15   Cl   0.903006451650647   0.253387487955649   0.736948835045837   1.0
Cl16   Cl   0.336877818474171   0.448300788486300   0.028711569535929   1.0
N17   N   0.356373762563685   0.886629379800738   0.524702985006726   1.0
