data_1
_audit_creation_method   'Generated by vasp2cif'
_cell_length_a    5.86712079157
_cell_length_b    5.88981886102
_cell_length_c    5.90403594223
_cell_angle_alpha    92.6473381128
_cell_angle_beta    83.9269009249
_cell_angle_gamma    91.291812964
_symmetry_space_group_name_H-M    'P 1'
loop_
_atom_site_label
_atom_site_type_symbol
_atom_site_fract_x
_atom_site_fract_y
_atom_site_fract_z
_atom_site_occupancy
H4   H   0.498742757202578   0.903435698794183   0.308926891412334   1.0
H5   H   0.715626234518801   0.685828593741455   0.657116568601126   1.0
H6   H   0.411162281732260   0.912110776142633   0.589445037352434   1.0
H7   H   0.507653532262815   0.294224997539658   0.400429102552231   1.0
H8   H   0.128521760273564   0.630753381231166   0.510571067899384   1.0
H9   H   0.277949582090983   0.580016225864007   0.232778537940504   1.0
H10   H   0.774490720974015   0.625465488947711   0.356095018243934   1.0
H11   H   0.406122027329786   0.395033596693580   0.682177186965127   1.0
C12   C   0.294171098360586   0.604487341747905   0.414148999379392   1.0
C13   C   0.643656590718287   0.637345751989102   0.500240327703303   1.0
C14   C   0.461558532950555   0.443510282591838   0.508987577930412   1.0
N16   N   0.460701941178165   0.806991760052910   0.449983846774636   1.0
