data_1
_audit_creation_method   'Generated by vasp2cif'
_cell_length_a    7.92438296461
_cell_length_b    5.65018724613
_cell_length_c    4.68809976845
_cell_angle_alpha    94.4909622379
_cell_angle_beta    84.6814773631
_cell_angle_gamma    86.2274754255
_symmetry_space_group_name_H-M    'P 1'
loop_
_atom_site_label
_atom_site_type_symbol
_atom_site_fract_x
_atom_site_fract_y
_atom_site_fract_z
_atom_site_occupancy
H4   H   0.402953584156037   0.984946103289715   0.944312161019241   1.0
H5   H   0.600844951148382   0.390515382996682   0.050921174540079   1.0
H6   H   0.672254184005347   0.103954291557244   0.050834542615256   1.0
H7   H   0.652688288529767   0.154654363929389   0.549998920790152   1.0
H8   H   0.508376148245617   0.413919622881942   0.548726297022696   1.0
H9   H   0.270331555882940   0.142336247535617   0.550125923228322   1.0
H10   H   0.417861550829500   0.891809014131184   0.446004952349320   1.0
H11   H   0.310711442976839   0.280187566510364   0.057923763771932   1.0
C12   C   0.542258789865912   0.231391471668886   0.459203616469530   1.0
C13   C   0.398140579389434   0.135117661070787   0.104263488872355   1.0
C14   C   0.388326142520647   0.080144578765257   0.421758761998945   1.0
N16   N   0.575668553833644   0.229586341811689   0.130879537973513   1.0
