data_1
_audit_creation_method   'Generated by vasp2cif'
_cell_length_a    8.18925947616
_cell_length_b    4.21819909977
_cell_length_c    6.34755866115
_cell_angle_alpha    67.1179090398
_cell_angle_beta    92.6969154716
_cell_angle_gamma    98.4679957141
_symmetry_space_group_name_H-M    'P 1'
loop_
_atom_site_label
_atom_site_type_symbol
_atom_site_fract_x
_atom_site_fract_y
_atom_site_fract_z
_atom_site_occupancy
H4   H   0.552741632943346   0.439941816766435   0.809219784397275   1.0
H5   H   0.329900598641397   0.674787740270820   0.559153587081797   1.0
H6   H   0.317970060582699   0.945968401296114   0.686109631493586   1.0
H7   H   0.543465693759582   0.065937037559885   0.306877108996772   1.0
H8   H   0.499587065455075   0.378235740864412   0.412509500093512   1.0
H9   H   0.717015809237794   0.184127363175037   0.715861528165005   1.0
H10   H   0.769501818909634   0.915240281577051   0.582498742076073   1.0
H11   H   0.510649966614654   0.697979628557637   0.959972864627348   1.0
C12   C   0.531844353545365   0.118340566379697   0.459581948317668   1.0
C13   C   0.538481674770652   0.699616422944813   0.794149168504219   1.0
C14   C   0.667027556651678   0.998529995217739   0.640907939303476   1.0
N16   N   0.400397874540876   0.840721207560501   0.623146539191684   1.0
