data_1
_audit_creation_method   'Generated by vasp2cif'
_cell_length_a    5.91548394027
_cell_length_b    4.30132129478
_cell_length_c    8.45195529377
_cell_angle_alpha    106.090386317
_cell_angle_beta    86.9108034639
_cell_angle_gamma    102.729705725
_symmetry_space_group_name_H-M    'P 1'
loop_
_atom_site_label
_atom_site_type_symbol
_atom_site_fract_x
_atom_site_fract_y
_atom_site_fract_z
_atom_site_occupancy
Cl1   Cl   0.832963235652372   0.769243216110596   0.826451694023184   1.0
Cl2   Cl   0.499421200452971   0.268659326361373   0.111182711562101   1.0
Cl3   Cl   0.951773943691038   0.049882188519078   0.276071774632641   1.0
H4   H   0.237097535575543   0.541276391436476   0.549852544097071   1.0
H5   H   0.484966461187945   0.706135723729091   0.338272133131383   1.0
H6   H   0.337714379068984   0.989115792161066   0.335001299215875   1.0
H7   H   0.706302572181372   0.062613181567002   0.575067429801919   1.0
H8   H   0.599722123546499   0.385966035014128   0.532034763258764   1.0
H9   H   0.257924570559467   0.278854898349003   0.719418234167264   1.0
H10   H   0.404050342469013   0.018319122227915   0.784992754803177   1.0
H11   H   0.052933628971409   0.780946785508952   0.505123237947565   1.0
C12   C   0.551389706425589   0.144594639749286   0.555954102467311   1.0
C13   C   0.227239960731140   0.783756079785576   0.539838747566819   1.0
C14   C   0.352960320095491   0.080530000689471   0.677935372115485   1.0
N16   N   0.406010157549048   0.885552512774183   0.413004822919120   1.0
