data_1
_audit_creation_method   'Generated by vasp2cif'
_cell_length_a    8.19521694365
_cell_length_b    4.24663452226
_cell_length_c    6.28527379395
_cell_angle_alpha    68.154665354
_cell_angle_beta    92.8296842805
_cell_angle_gamma    99.2788027789
_symmetry_space_group_name_H-M    'P 1'
loop_
_atom_site_label
_atom_site_type_symbol
_atom_site_fract_x
_atom_site_fract_y
_atom_site_fract_z
_atom_site_occupancy
Cl1   Cl   0.808726443927980   0.820516991476259   0.176493208490603   1.0
Cl2   Cl   0.093275315484811   0.303044031090641   0.512587088255021   1.0
Cl3   Cl   0.265997362805865   0.023087598487303   0.051944899246607   1.0
H4   H   0.547996907925688   0.468716975589773   0.789529619838349   1.0
H5   H   0.326701601489552   0.700354542111025   0.540716623946615   1.0
H6   H   0.316155771706131   0.967405316505878   0.673274253659051   1.0
H7   H   0.545140564915713   0.085589883187498   0.295021152411855   1.0
H8   H   0.500458792929219   0.394857095678131   0.403022448131523   1.0
H9   H   0.712661126927756   0.204542925559395   0.713790088416799   1.0
H10   H   0.768804924849322   0.943647639366783   0.575705083960981   1.0
H11   H   0.504805458906080   0.715946429652799   0.949002804523904   1.0
C12   C   0.531721437891340   0.138441824598653   0.449007719715774   1.0
C13   C   0.534179937365657   0.723118060563959   0.780745564294480   1.0
C14   C   0.664690622359785   0.021846863188466   0.633525274120135   1.0
N16   N   0.397935239691951   0.863725968330528   0.608505087147689   1.0
