data_1
_audit_creation_method   'Generated by vasp2cif'
_cell_length_a    5.88718467369
_cell_length_b    4.16041268706
_cell_length_c    8.35691344202
_cell_angle_alpha    81.236427099
_cell_angle_beta    90.4917708615
_cell_angle_gamma    99.0664271149
_symmetry_space_group_name_H-M    'P 1'
loop_
_atom_site_label
_atom_site_type_symbol
_atom_site_fract_x
_atom_site_fract_y
_atom_site_fract_z
_atom_site_occupancy
Cl1   Cl   0.875805681542246   0.813122805635970   0.804694470313777   1.0
Cl2   Cl   0.505407100547750   0.064453641469655   0.084528913988642   1.0
Cl3   Cl   0.961081645283329   0.697357790142711   0.255936284267584   1.0
H4   H   0.230598143700931   0.931522333336297   0.522489084580386   1.0
H5   H   0.480123365167159   0.274409028624881   0.315242024292701   1.0
H6   H   0.345173708192199   0.587601472875306   0.328282677824802   1.0
H7   H   0.716995882293311   0.376777487838446   0.542319533224131   1.0
H8   H   0.621053868970669   0.763924345962366   0.522448630698356   1.0
H9   H   0.291390831559149   0.509659048009517   0.717567192119347   1.0
H10   H   0.426516247703510   0.154701976206759   0.757887332033363   1.0
H11   H   0.064622498348420   0.255110890756626   0.501105175565733   1.0
C12   C   0.566622961039137   0.499249931966091   0.537070253954354   1.0
C13   C   0.234900537078445   0.192346098120538   0.524618956939818   1.0
C14   C   0.374604719108611   0.335887208853990   0.662422683394510   1.0
N16   N   0.411322437481516   0.397240085786194   0.397440555838166   1.0
