data_1
_audit_creation_method   'Generated by vasp2cif'
_cell_length_a    4.11801086328
_cell_length_b    5.66944251593
_cell_length_c    8.53700685296
_cell_angle_alpha    91.9158785788
_cell_angle_beta    90.2135632161
_cell_angle_gamma    94.7597145314
_symmetry_space_group_name_H-M    'P 1'
loop_
_atom_site_label
_atom_site_type_symbol
_atom_site_fract_x
_atom_site_fract_y
_atom_site_fract_z
_atom_site_occupancy
Cl1   Cl   0.328152291168394   0.603750972755513   0.106690177508298   1.0
Cl2   Cl   0.830612314014473   0.038224890578135   0.894956320872438   1.0
Cl3   Cl   0.321304888506397   0.606477819484148   0.644477406396533   1.0
H4   H   0.839440721295873   0.964919951785532   0.186368649930664   1.0
H5   H   0.002484547583279   0.827515857047821   0.503109181483396   1.0
H6   H   0.642220554987716   0.782731021626326   0.415282184339993   1.0
H7   H   0.474581964292092   0.125905074952548   0.547901596429611   1.0
H8   H   0.881868667337045   0.194717767680253   0.612173178464261   1.0
H9   H   0.003848383586984   0.420631750682098   0.376034579573400   1.0
H10   H   0.617515171352018   0.328414271833246   0.291679459125966   1.0
H11   H   0.217715935770705   0.044572107482416   0.281381132174339   1.0
C12   C   0.727594745750920   0.143269329101528   0.511361199909402   1.0
C13   C   0.955031984124609   0.043618202982721   0.291796520611236   1.0
C14   C   0.820581038424862   0.272388993110646   0.359184728226900   1.0
N16   N   0.832968815755329   0.908058466666738   0.437669239865727   1.0
