data_1
_audit_creation_method   'Generated by vasp2cif'
_cell_length_a    7.50289468292
_cell_length_b    6.10636215721
_cell_length_c    4.69981680474
_cell_angle_alpha    83.1524707208
_cell_angle_beta    84.4554459411
_cell_angle_gamma    83.1815178625
_symmetry_space_group_name_H-M    'P 1'
loop_
_atom_site_label
_atom_site_type_symbol
_atom_site_fract_x
_atom_site_fract_y
_atom_site_fract_z
_atom_site_occupancy
Cl1   Cl   0.130201713370099   0.507659159079957   0.835637845476469   1.0
Cl2   Cl   0.862949703977264   0.023217309045911   0.798746407039118   1.0
Cl3   Cl   0.678115484587913   0.562147059654542   0.257105288400808   1.0
H4   H   0.444655828304675   0.859285089586635   0.939469993009688   1.0
H5   H   0.404188255187492   0.342507698907859   0.967246460136472   1.0
H6   H   0.601771859138339   0.172264310944335   0.949866776755002   1.0
H7   H   0.573945971208992   0.065865970378404   0.444580017581750   1.0
H8   H   0.399530286494404   0.293695254473931   0.465777919383285   1.0
H9   H   0.168197524036351   0.052726045433879   0.398316453111228   1.0
H10   H   0.330030750677551   0.816214686143788   0.455976148574536   1.0
H11   H   0.247188684613732   0.053943486027443   0.877591064685213   1.0
C12   C   0.446421716175422   0.142603976852143   0.367344372551571   1.0
C13   C   0.356305504945048   0.999280275302084   0.013882594531140   1.0
C14   C   0.305585468621338   0.981345831729911   0.341921531961852   1.0
N16   N   0.469533785015436   0.190611493184420   0.038866935291445   1.0
