data_1
_audit_creation_method   'Generated by vasp2cif'
_cell_length_a    7.66732903135
_cell_length_b    5.88166750841
_cell_length_c    4.8213352156
_cell_angle_alpha    85.8961096683
_cell_angle_beta    87.8553436585
_cell_angle_gamma    77.9238211637
_symmetry_space_group_name_H-M    'P 1'
loop_
_atom_site_label
_atom_site_type_symbol
_atom_site_fract_x
_atom_site_fract_y
_atom_site_fract_z
_atom_site_occupancy
H4   H   0.324257656764637   0.121064850127155   0.700361308939989   1.0
H5   H   0.526402003924403   0.460193406501595   0.830070493076768   1.0
H6   H   0.614476497025024   0.175907352172835   0.810076201653679   1.0
H7   H   0.619558487610341   0.137350744739805   0.296265557165022   1.0
H8   H   0.455105727158937   0.406772571290922   0.309296541913483   1.0
H9   H   0.222090601387976   0.163196353341625   0.299197846996492   1.0
H10   H   0.383895670098184   0.929578909638437   0.171522761144914   1.0
H11   H   0.228237089471541   0.395017104729135   0.841968581314177   1.0
C12   C   0.496277249216625   0.241467950042498   0.212062258811457   1.0
C13   C   0.326530294383019   0.233141088826862   0.868040080907036   1.0
C14   C   0.340162054372946   0.118451414135052   0.166591410787625   1.0
N16   N   0.511467121868201   0.293723018123686   0.896235204898957   1.0
