data_1
_audit_creation_method   'Generated by vasp2cif'
_cell_length_a    5.5797822803
_cell_length_b    6.78487510895
_cell_length_c    5.59273842353
_cell_angle_alpha    90.1676004261
_cell_angle_beta    78.2386227014
_cell_angle_gamma    90.40036451
_symmetry_space_group_name_H-M    'P 1'
loop_
_atom_site_label
_atom_site_type_symbol
_atom_site_fract_x
_atom_site_fract_y
_atom_site_fract_z
_atom_site_occupancy
Cl1   Cl   0.335695333216030   0.743619334875490   0.061537383371487   1.0
Cl2   Cl   0.837686534778996   0.742339526247939   0.548854877336098   1.0
Cl3   Cl   0.868048960924192   0.121423359194878   0.084197736634458   1.0
H4   H   0.579541366293292   0.052226065451016   0.801751016649412   1.0
H5   H   0.313200198607369   0.902360918168270   0.524505737209033   1.0
H6   H   0.260432795827093   0.523804982906825   0.489065871390636   1.0
H7   H   0.570600773522600   0.426239502981708   0.803310384471835   1.0
H8   H   0.123876532331820   0.191521046872303   0.340678950294105   1.0
C9   C   0.471308082104016   0.335900668175128   0.698754466040832   1.0
C10   C   0.340597360035886   0.055877021492066   0.557528433305365   1.0
C11   C   0.319223952835380   0.384043151255987   0.544983067799272   1.0
N13   N   0.481030006023708   0.132222282583221   0.702672534662874   1.0
N14   N   0.240471819259866   0.207239309914471   0.459600712709872   1.0
