data_1
_audit_creation_method   'Generated by vasp2cif'
_cell_length_a    5.69972093728
_cell_length_b    6.47960311843
_cell_length_c    5.60355075194
_cell_angle_alpha    96.2057422303
_cell_angle_beta    79.9113169623
_cell_angle_gamma    84.1364647784
_symmetry_space_group_name_H-M    'P 1'
loop_
_atom_site_label
_atom_site_type_symbol
_atom_site_fract_x
_atom_site_fract_y
_atom_site_fract_z
_atom_site_occupancy
H4   H   0.390164209529836   0.063772623847576   0.285201592863522   1.0
H5   H   0.645891666229836   0.984413723685897   0.603176736588992   1.0
H6   H   0.782885204988105   0.575970228671004   0.391261250734708   1.0
H7   H   0.452444465816221   0.416186036837331   0.132258866397727   1.0
H8   H   0.874709598770288   0.294312026941604   0.665700789557988   1.0
C9   C   0.541209955401023   0.354616326091637   0.267818477452025   1.0
C10   C   0.637048172273516   0.121478705885480   0.511139758298221   1.0
C11   C   0.701602685951976   0.433747742380284   0.396480570482318   1.0
N13   N   0.503700393469401   0.161670500170409   0.343080490577662   1.0
N14   N   0.758043944074345   0.285938533116926   0.546684237235517   1.0
