data_1
_audit_creation_method   'Generated by vasp2cif'
_cell_length_a    5.96441757904
_cell_length_b    5.7402703648
_cell_length_c    6.12331395006
_cell_angle_alpha    96.667871026
_cell_angle_beta    94.9871271216
_cell_angle_gamma    101.211363832
_symmetry_space_group_name_H-M    'P 1'
loop_
_atom_site_label
_atom_site_type_symbol
_atom_site_fract_x
_atom_site_fract_y
_atom_site_fract_z
_atom_site_occupancy
Cl1   Cl   0.946417540008980   0.869457936644729   0.399336471891679   1.0
Cl2   Cl   0.534750958394866   0.837989876633152   0.943440291059112   1.0
Cl3   Cl   0.934792050201608   0.453561631612736   0.902620928745264   1.0
H4   H   0.184043079267269   0.465687173887204   0.650081533408894   1.0
H5   H   0.411065567920041   0.150914797819105   0.744850318430181   1.0
H6   H   0.600191483327869   0.362350298396592   0.134928172812565   1.0
H7   H   0.280264030991937   0.619309671471569   0.285060739135936   1.0
H8   H   0.657324096096730   0.091924180544112   0.430237897535690   1.0
C9   C   0.354153614458710   0.484017440749575   0.353293471709300   1.0
C10   C   0.417271013021988   0.242392529009713   0.601286957839498   1.0
C11   C   0.509621272577299   0.356346106087500   0.278903056529735   1.0
N13   N   0.299650236975616   0.409407238538179   0.552966875994855   1.0
N14   N   0.546049023576160   0.207138124296080   0.436087002773313   1.0
