data_1
_audit_creation_method   'Generated by vasp2cif'
_cell_length_a    9.05051444899
_cell_length_b    3.93545248422
_cell_length_c    5.60463549537
_cell_angle_alpha    98.007850402
_cell_angle_beta    94.2988589867
_cell_angle_gamma    89.7809814057
_symmetry_space_group_name_H-M    'P 1'
loop_
_atom_site_label
_atom_site_type_symbol
_atom_site_fract_x
_atom_site_fract_y
_atom_site_fract_z
_atom_site_occupancy
Cl1   Cl   0.767446604904990   0.111431244176600   0.014440413748012   1.0
Cl2   Cl   0.010117120161858   0.672182202552968   0.456848751270535   1.0
Cl3   Cl   0.205853356154833   0.115056193656699   0.024485309524735   1.0
H4   H   0.264238473038006   0.791697841125441   0.410484137376102   1.0
H5   H   0.613344658847538   0.398554435363707   0.792074717622249   1.0
H6   H   0.729859264151592   0.641011995806799   0.452471256504694   1.0
H7   H   0.494514078318652   0.910051620953794   0.190008298805864   1.0
H8   H   0.329796741403143   0.485271904728016   0.774786242299868   1.0
C9   C   0.612880019690927   0.649533001441576   0.475656405663642   1.0
C10   C   0.497255424100672   0.780246474904928   0.346753213320149   1.0
C11   C   0.405802507969128   0.567513110570502   0.654824124092436   1.0
N13   N   0.553096487162719   0.518817091313821   0.665500629197766   1.0
N14   N   0.370329619642689   0.728186780879867   0.462653297229153   1.0
