data_1
_audit_creation_method   'Generated by vasp2cif'
_cell_length_a    5.58553329158
_cell_length_b    3.94517234073
_cell_length_c    9.05474588493
_cell_angle_alpha    91.999716391
_cell_angle_beta    87.8883821218
_cell_angle_gamma    97.0562347076
_symmetry_space_group_name_H-M    'P 1'
loop_
_atom_site_label
_atom_site_type_symbol
_atom_site_fract_x
_atom_site_fract_y
_atom_site_fract_z
_atom_site_occupancy
H4   H   0.419348837622974   0.001067552077179   0.738291880183136   1.0
H5   H   0.798287909335273   0.711246024934276   0.368816906067711   1.0
H6   H   0.461646095364673   0.012575194493084   0.268717287714697   1.0
H7   H   0.197368065736030   0.203514582523469   0.518641468835287   1.0
H8   H   0.780329092542007   0.702562095397411   0.653014952254945   1.0
C9   C   0.483914731454307   0.978356074851177   0.384566363856582   1.0
C10   C   0.353990496180219   0.070331609205026   0.507153891633872   1.0
C11   C   0.660542035404369   0.814429419004446   0.583295520323630   1.0
N13   N   0.673213902945511   0.820634649843444   0.434880478555065   1.0
N14   N   0.467818768307262   0.966724106266911   0.629073825203625   1.0
