data_1
_audit_creation_method   'Generated by vasp2cif'
_cell_length_a    5.96716203183
_cell_length_b    5.91187306763
_cell_length_c    6.30671022703
_cell_angle_alpha    80.8103262339
_cell_angle_beta    87.552550774
_cell_angle_gamma    94.6823558856
_symmetry_space_group_name_H-M    'P 1'
loop_
_atom_site_label
_atom_site_type_symbol
_atom_site_fract_x
_atom_site_fract_y
_atom_site_fract_z
_atom_site_occupancy
C1   C   0.466922534576952   0.585395605404997   0.337870378575531   1.0
C2   C   0.552943341897105   0.414441798372792   0.204843083362540   1.0
H3   H   0.734199744198534   0.448147878200366   0.166162656237560   1.0
H4   H   0.466724113100355   0.429077647003474   0.054867868640919   1.0
H5   H   0.568255183903261   0.408066432892333   0.633399227541609   1.0
H6   H   0.535274840734175   0.686900924233584   0.639499836998191   1.0
H7   H   0.517728716299729   0.237609405779708   0.289310017195703   1.0
H8   H   0.497732227271655   0.762788569204659   0.255647000718945   1.0
H9   H   0.288142144210511   0.549224541666590   0.385258140954562   1.0
H10   H   0.760999840778247   0.614546930850125   0.510993710952590   1.0
N14   N   0.590612334436770   0.572374534269962   0.544623132934781   1.0
