data_1
_audit_creation_method   'Generated by vasp2cif'
_cell_length_a    6.21437969891
_cell_length_b    5.82235795188
_cell_length_c    6.18019469975
_cell_angle_alpha    84.2113254768
_cell_angle_beta    76.2518973671
_cell_angle_gamma    83.9302047216
_symmetry_space_group_name_H-M    'P 1'
loop_
_atom_site_label
_atom_site_type_symbol
_atom_site_fract_x
_atom_site_fract_y
_atom_site_fract_z
_atom_site_occupancy
C1   C   0.579055552621835   0.785402671273626   0.303802028024421   1.0
C2   C   0.505658620006345   0.597780929984304   0.189871394297369   1.0
H3   H   0.647570780463492   0.506340742793937   0.082811487306425   1.0
H4   H   0.394440546376743   0.677317244736430   0.085401667653696   1.0
H5   H   0.657129392307453   0.553828566981942   0.569100903806938   1.0
H6   H   0.778204005772032   0.802449736684035   0.537110929130481   1.0
H7   H   0.415677974324211   0.471219716244583   0.311643521254867   1.0
H8   H   0.672122316769771   0.911104609663172   0.185030352005108   1.0
H9   H   0.439400800999715   0.876872629159233   0.412589385183745   1.0
H10   H   0.875457185112761   0.595644057997478   0.360635048903622   1.0
N14   N   0.732962896962282   0.678539853958228   0.452484698932881   1.0
