data_1
_audit_creation_method   'Generated by vasp2cif'
_cell_length_a    6.23615871248
_cell_length_b    4.23082196922
_cell_length_c    8.52575341013
_cell_angle_alpha    93.627616997
_cell_angle_beta    92.9865680761
_cell_angle_gamma    102.315043478
_symmetry_space_group_name_H-M    'P 1'
loop_
_atom_site_label
_atom_site_type_symbol
_atom_site_fract_x
_atom_site_fract_y
_atom_site_fract_z
_atom_site_occupancy
C1   C   0.573474288748402   0.714903294305231   0.415154986351773   1.0
C2   C   0.556822502009799   0.510417006295904   0.556110952789717   1.0
H3   H   0.708823840890247   0.427089759351371   0.580252814392594   1.0
H4   H   0.530283477510511   0.657341164362147   0.660154323139212   1.0
H5   H   0.752820954194069   0.434359237957626   0.275449821006841   1.0
H6   H   0.610430979974732   0.650649333572753   0.169129394357035   1.0
H7   H   0.421976486337101   0.798691920308954   0.389661192211100   1.0
H8   H   0.417998309353440   0.301989602102478   0.538211084731375   1.0
H9   H   0.713725836749162   0.920582284564059   0.430955143442128   1.0
H10   H   0.476532910409552   0.320908659600731   0.243628975260061   1.0
N14   N   0.607807394359471   0.516535080816369   0.267222808208206   1.0
