data_1
_audit_creation_method   'Generated by vasp2cif'
_cell_length_a    8.4447364623
_cell_length_b    4.26770360438
_cell_length_c    6.13908160359
_cell_angle_alpha    80.547921495
_cell_angle_beta    93.0702238016
_cell_angle_gamma    87.6326281542
_symmetry_space_group_name_H-M    'P 1'
loop_
_atom_site_label
_atom_site_type_symbol
_atom_site_fract_x
_atom_site_fract_y
_atom_site_fract_z
_atom_site_occupancy
C1   C   0.467422022069428   0.547407155892714   0.412755475139605   1.0
C2   C   0.408606993993366   0.689575652507841   0.607820032013755   1.0
H3   H   0.386491409598541   0.503693044654462   0.746333097160630   1.0
H4   H   0.494788992173575   0.844225827566788   0.668992476126540   1.0
H5   H   0.640882256217118   0.239256974705938   0.618923051908183   1.0
H6   H   0.718220209077501   0.556857268876655   0.484748483468607   1.0
H7   H   0.390836928306818   0.364028834301841   0.369352258013066   1.0
H8   H   0.297268469650817   0.827847259017346   0.557056686225337   1.0
H9   H   0.476519482411213   0.724993699622729   0.265040951279310   1.0
H10   H   0.668079655826006   0.268756173011546   0.345037528021102   1.0
N14   N   0.633193972055494   0.391470979634143   0.468548949276254   1.0
