data_1
_audit_creation_method   'Generated by vasp2cif'
_cell_length_a    6.20699232939
_cell_length_b    4.29349767201
_cell_length_c    8.27876403442
_cell_angle_alpha    95.1184677891
_cell_angle_beta    97.6805973834
_cell_angle_gamma    94.2855257548
_symmetry_space_group_name_H-M    'P 1'
loop_
_atom_site_label
_atom_site_type_symbol
_atom_site_fract_x
_atom_site_fract_y
_atom_site_fract_z
_atom_site_occupancy
C1   C   0.408765001431462   0.834192532633026   0.612723509015431   1.0
C2   C   0.572273234749574   0.624876274977851   0.548635176242172   1.0
H3   H   0.491831768107183   0.440543538098076   0.455834057144159   1.0
H4   H   0.686912049065427   0.768324433524036   0.490927877093590   1.0
H5   H   0.161060843836978   0.470974897997571   0.622565509661996   1.0
H6   H   0.140501639332804   0.792745993358380   0.747205827022078   1.0
H7   H   0.489706354954414   0.022839463195723   0.702337198975769   1.0
H8   H   0.665127655289005   0.518726132209522   0.648085884382603   1.0
H9   H   0.309716777498075   0.931650175104622   0.513643157673300   1.0
H10   H   0.331991940373790   0.558572133519760   0.801857238218588   1.0
N14   N   0.250438824545014   0.649395580406008   0.701299461459556   1.0
