data_1
_audit_creation_method   'Generated by vasp2cif'
_cell_length_a    6.76368142366
_cell_length_b    4.59454273072
_cell_length_c    7.42740102923
_cell_angle_alpha    103.590556792
_cell_angle_beta    92.3872336767
_cell_angle_gamma    84.0588434338
_symmetry_space_group_name_H-M    'P 1'
loop_
_atom_site_label
_atom_site_type_symbol
_atom_site_fract_x
_atom_site_fract_y
_atom_site_fract_z
_atom_site_occupancy
C1   C   0.574597514347580   0.452049582792263   0.490752096034008   1.0
C2   C   0.692683081001540   0.722394235127823   0.557701879342140   1.0
H3   H   0.822544507618417   0.651308831162218   0.634522826030285   1.0
H4   H   0.746617905141555   0.799677078473955   0.442040306087115   1.0
H5   H   0.438935759112276   0.589110114870508   0.255624930511871   1.0
H6   H   0.303615029002238   0.707347048368995   0.447209819153962   1.0
H7   H   0.663394829454241   0.264610642802090   0.403101843140682   1.0
H8   H   0.605885535545283   0.907099313967095   0.650174086412832   1.0
H9   H   0.515942486460453   0.379765078133509   0.605999962477142   1.0
H10   H   0.311406882549882   0.350152347959124   0.328827099563895   1.0
N14   N   0.396050920247738   0.528031340093122   0.373109371809271   1.0
