data_1
_audit_creation_method   'Generated by vasp2cif'
_cell_length_a    5.65143549733
_cell_length_b    4.06909407704
_cell_length_c    9.44640291413
_cell_angle_alpha    90.4231790069
_cell_angle_beta    83.7060102816
_cell_angle_gamma    90.2800698031
_symmetry_space_group_name_H-M    'P 1'
loop_
_atom_site_label
_atom_site_type_symbol
_atom_site_fract_x
_atom_site_fract_y
_atom_site_fract_z
_atom_site_occupancy
C1   C   0.457347583234693   0.102365954033353   0.472799332429851   1.0
C2   C   0.663028024858690   0.112247558986532   0.564405120066930   1.0
H3   H   0.787719026872487   0.910573426963531   0.537302710430353   1.0
H4   H   0.761859364190954   0.344130992364896   0.551974862431599   1.0
H5   H   0.414258455810042   0.121885322618020   0.250985816698915   1.0
H6   H   0.662779308516917   0.927104128895834   0.284272328084981   1.0
H7   H   0.353236599681992   0.875825429632968   0.485984706333532   1.0
H8   H   0.593734344002442   0.088861440155370   0.676290284241041   1.0
H9   H   0.334929474955082   0.307878055550049   0.494823693371124   1.0
H10   H   0.655506729594563   0.327049231307306   0.292625136036044   1.0
N14   N   0.549769698298036   0.121098836017879   0.315615683562456   1.0
