data_1
_audit_creation_method   'Generated by vasp2cif'
_cell_length_a    8.15559183553
_cell_length_b    4.30439860215
_cell_length_c    6.40554399954
_cell_angle_alpha    74.4641913346
_cell_angle_beta    90.5564811298
_cell_angle_gamma    91.3300121536
_symmetry_space_group_name_H-M    'P 1'
loop_
_atom_site_label
_atom_site_type_symbol
_atom_site_fract_x
_atom_site_fract_y
_atom_site_fract_z
_atom_site_occupancy
C1   C   0.377683825193948   0.801883519641729   0.411196774041464   1.0
C2   C   0.516063723161603   0.563803534220405   0.438471523662089   1.0
H3   H   0.515162496344374   0.442635976393384   0.308711272323284   1.0
H4   H   0.633384560972664   0.693438833446356   0.430700916426387   1.0
H5   H   0.193848903297952   0.535064784564785   0.291759857762354   1.0
H6   H   0.115301437672344   0.780480433581639   0.420138493337197   1.0
H7   H   0.378024792694606   0.920355190763128   0.541560078010087   1.0
H8   H   0.508143013805574   0.384652497658945   0.595479433392834   1.0
H9   H   0.380686388385732   0.980240832641715   0.253604063748455   1.0
H10   H   0.202193376922795   0.438633798043876   0.563513879402458   1.0
N14   N   0.212118659810989   0.626475780552108   0.423429284325493   1.0
