data_1
_audit_creation_method   'Generated by vasp2cif'
_cell_length_a    10.7950525524
_cell_length_b    4.74540263072
_cell_length_c    4.32157385219
_cell_angle_alpha    90.1168131996
_cell_angle_beta    89.8988217501
_cell_angle_gamma    83.5988197693
_symmetry_space_group_name_H-M    'P 1'
loop_
_atom_site_label
_atom_site_type_symbol
_atom_site_fract_x
_atom_site_fract_y
_atom_site_fract_z
_atom_site_occupancy
C1   C   0.595394171619809   0.707916717320025   0.548397022714887   1.0
C2   C   0.512968754007417   0.469129876215916   0.518697612989023   1.0
H3   H   0.525759640063541   0.323742656532325   0.714908291182560   1.0
H4   H   0.415249231075371   0.558005503338059   0.514220506562509   1.0
H5   H   0.751688724007934   0.451771003191958   0.737614114278635   1.0
H6   H   0.787504143571432   0.755424702726572   0.581444928649454   1.0
H7   H   0.584107663927547   0.854718935220212   0.354097995913442   1.0
H8   H   0.532866428193429   0.349243364881573   0.304501005739894   1.0
H9   H   0.577016114016928   0.828880669127024   0.761637147260316   1.0
H10   H   0.759152221179960   0.479377800277348   0.357454367928355   1.0
N14   N   0.732234977251132   0.593322675105469   0.555945998679263   1.0
