data_1
_audit_creation_method   'Generated by vasp2cif'
_cell_length_a    8.19251969379
_cell_length_b    4.54621298053
_cell_length_c    6.23448825368
_cell_angle_alpha    95.0973503055
_cell_angle_beta    101.080009569
_cell_angle_gamma    97.1429120926
_symmetry_space_group_name_H-M    'P 1'
loop_
_atom_site_label
_atom_site_type_symbol
_atom_site_fract_x
_atom_site_fract_y
_atom_site_fract_z
_atom_site_occupancy
C1   C   0.607009431839721   0.661052544295153   0.527698832309028   1.0
C2   C   0.467001593852601   0.587122536419443   0.651715075597423   1.0
H3   H   0.366807736143073   0.419771543673562   0.553202853493026   1.0
H4   H   0.516276346080204   0.507314047241287   0.808687394905512   1.0
H5   H   0.733136191323077   0.301636975441333   0.619871717668893   1.0
H6   H   0.787891068981374   0.440658956106098   0.399189312564289   1.0
H7   H   0.560239451138891   0.737154592004153   0.369097659836811   1.0
H8   H   0.413102838667953   0.789722819049992   0.686958721436937   1.0
H9   H   0.708352370423910   0.823697862421049   0.626163930971771   1.0
H10   H   0.600404203946347   0.231701452972864   0.368873771817931   1.0
N14   N   0.688277709586615   0.388439985120598   0.475300985171913   1.0
