data_1
_audit_creation_method   'Generated by vasp2cif'
_cell_length_a    6.19499225332
_cell_length_b    5.94408933866
_cell_length_c    7.05022455763
_cell_angle_alpha    73.2060995953
_cell_angle_beta    88.1303838537
_cell_angle_gamma    83.377373962
_symmetry_space_group_name_H-M    'P 1'
loop_
_atom_site_label
_atom_site_type_symbol
_atom_site_fract_x
_atom_site_fract_y
_atom_site_fract_z
_atom_site_occupancy
C1   C   0.691882590075069   0.662657011805974   0.395420317443081   1.0
C2   C   0.597892435396784   0.452289242898975   0.358687525398426   1.0
C3   C   0.611658842007451   0.462856156479034   0.139381999407002   1.0
H4   H   0.778830024647860   0.474326479456636   0.085293397040470   1.0
H5   H   0.556098452188321   0.304700689146667   0.117779206617427   1.0
H6   H   0.428217748396834   0.449171541457740   0.408337108625157   1.0
H7   H   0.689388954859612   0.288500547609673   0.446818392116363   1.0
H8   H   0.496881761978742   0.658566600053343   0.648689139316186   1.0
H9   H   0.719623585301294   0.798280218048059   0.644043339282918   1.0
H10   H   0.508640442134339   0.616259839701684   0.049750405556587   1.0
H11   H   0.866381035909729   0.658796925977372   0.366995757355497   1.0
H12   H   0.610720832404124   0.831670695433555   0.307409336673653   1.0
H13   H   0.739416480464881   0.504856264114637   0.702649044190330   1.0
N17   N   0.659909258582172   0.658312408167712   0.611276795821536   1.0
