data_1
_audit_creation_method   'Generated by vasp2cif'
_cell_length_a    6.08664315274
_cell_length_b    6.07871217344
_cell_length_c    7.12760947591
_cell_angle_alpha    107.609874615
_cell_angle_beta    83.1267444483
_cell_angle_gamma    91.1618506279
_symmetry_space_group_name_H-M    'P 1'
loop_
_atom_site_label
_atom_site_type_symbol
_atom_site_fract_x
_atom_site_fract_y
_atom_site_fract_z
_atom_site_occupancy
C1   C   0.416282435633321   0.690008619077773   0.622210707057020   1.0
C2   C   0.286889577956433   0.514639528430422   0.704163019754928   1.0
C3   C   0.404193367640436   0.465921731397712   0.866253350275030   1.0
H4   H   0.403325360257072   0.619620325795943   0.994813707108366   1.0
H5   H   0.322781791859355   0.327366811838996   0.914159108026856   1.0
H6   H   0.275847846738601   0.353578803321496   0.584112800695950   1.0
H7   H   0.116937749325942   0.577594767585548   0.761210928147685   1.0
H8   H   0.362020592109783   0.536795009296362   0.324692704272456   1.0
H9   H   0.410775875490112   0.819057046709489   0.374253653812688   1.0
H10   H   0.576682889234542   0.412813718763766   0.811647522401230   1.0
H11   H   0.398932699884833   0.865190894726776   0.724164923006186   1.0
H12   H   0.592012788888171   0.644696096735394   0.584719999125357   1.0
H13   H   0.165497084183437   0.730297329905245   0.451850225739156   1.0
N17   N   0.333512127411256   0.695557421465742   0.430905414814770   1.0
