data_1
_audit_creation_method   'Generated by vasp2cif'
_cell_length_a    5.97264150145
_cell_length_b    6.01559721685
_cell_length_c    7.38190921735
_cell_angle_alpha    104.627827177
_cell_angle_beta    79.0855466419
_cell_angle_gamma    92.9036546828
_symmetry_space_group_name_H-M    'P 1'
loop_
_atom_site_label
_atom_site_type_symbol
_atom_site_fract_x
_atom_site_fract_y
_atom_site_fract_z
_atom_site_occupancy
C1   C   0.500743530179960   0.617401753765940   0.622428116688972   1.0
C2   C   0.400822613758713   0.435410326750414   0.726150165304503   1.0
C3   C   0.536525066225877   0.424179352741682   0.880151099936548   1.0
H4   H   0.523083381297241   0.585184965005816   0.990487419069893   1.0
H5   H   0.472955343481608   0.285279954639606   0.946989901150943   1.0
H6   H   0.405990484680302   0.267753757927842   0.623457002177375   1.0
H7   H   0.220934068352818   0.473273280853931   0.788884989773081   1.0
H8   H   0.409306307237976   0.444174526111041   0.359748210122902   1.0
H9   H   0.447686629233203   0.726896390948255   0.379593865324963   1.0
H10   H   0.717236728409127   0.391696351717847   0.819268528151703   1.0
H11   H   0.475824236759529   0.791735251712055   0.712816239510829   1.0
H12   H   0.681899758005798   0.590499937836093   0.564668577749160   1.0
H13   H   0.212803918248262   0.632946212104436   0.497218582372099   1.0
N17   N   0.385584228401804   0.604680712820887   0.453466379510310   1.0
