data_1
_audit_creation_method   'Generated by vasp2cif'
_cell_length_a    6.45885970683
_cell_length_b    6.22170932564
_cell_length_c    6.18435474263
_cell_angle_alpha    77.6266951864
_cell_angle_beta    89.2664656517
_cell_angle_gamma    82.3360482255
_symmetry_space_group_name_H-M    'P 1'
loop_
_atom_site_label
_atom_site_type_symbol
_atom_site_fract_x
_atom_site_fract_y
_atom_site_fract_z
_atom_site_occupancy
C1   C   0.586418542589406   0.598346631164056   0.362252505164129   1.0
C2   C   0.614982244244821   0.403016626077239   0.247032352483153   1.0
C3   C   0.412524432707521   0.304252376307119   0.225308103512397   1.0
H4   H   0.288314870277070   0.429459558959692   0.139032935635783   1.0
H5   H   0.440100293952625   0.171885950232600   0.133609238976412   1.0
H6   H   0.735608080065404   0.274313504451939   0.334791024785332   1.0
H7   H   0.678714923827471   0.464029376637292   0.083580414926175   1.0
H8   H   0.576520505980668   0.382270370590021   0.678135205188838   1.0
H9   H   0.340727815917852   0.508967779596162   0.587843607589491   1.0
H10   H   0.352508577588139   0.230932888836108   0.386980064614775   1.0
H11   H   0.734067603444686   0.656588367103730   0.386566756973636   1.0
H12   H   0.476902180379000   0.737014846940319   0.274117707093311   1.0
H13   H   0.511602207707931   0.651261933828302   0.681710048643353   1.0
N17   N   0.496385819314916   0.530538163232045   0.593054845604236   1.0
