data_1
_audit_creation_method   'Generated by vasp2cif'
_cell_length_a    7.91050248118
_cell_length_b    4.46361324608
_cell_length_c    7.27317277955
_cell_angle_alpha    78.9347381254
_cell_angle_beta    85.9432942089
_cell_angle_gamma    77.9128677379
_symmetry_space_group_name_H-M    'P 1'
loop_
_atom_site_label
_atom_site_type_symbol
_atom_site_fract_x
_atom_site_fract_y
_atom_site_fract_z
_atom_site_occupancy
C1   C   0.909694565773663   0.354138539711094   0.378543198027018   1.0
C2   C   0.744593939919518   0.225633201441426   0.428215857888901   1.0
C3   C   0.662767750921951   0.202751890393529   0.246884902292784   1.0
H4   H   0.543876865333324   0.113041962342493   0.279866148849607   1.0
H5   H   0.751152012209822   0.047283419205250   0.167181241041064   1.0
H6   H   0.774701571613782   0.994110072947507   0.517027866338587   1.0
H7   H   0.653375755290682   0.373711220249433   0.510294938701193   1.0
H8   H   0.056427434970729   0.058110871384166   0.602262577272526   1.0
H9   H   0.974653487275575   0.408394598911293   0.650530181034050   1.0
H10   H   0.986230582495324   0.244017959892275   0.270205551538425   1.0
H11   H   0.633384597259301   0.431864006257186   0.155937973615089   1.0
H12   H   0.882996071935011   0.605267046986818   0.329222088125348   1.0
H13   H   0.142423813886865   0.364003139230981   0.498842154569829   1.0
N17   N   0.027806586977391   0.291245361598982   0.543155279317546   1.0
