data_1
_audit_creation_method   'Generated by vasp2cif'
_cell_length_a    7.41143816607
_cell_length_b    5.27754146906
_cell_length_c    7.76980548271
_cell_angle_alpha    88.498090915
_cell_angle_beta    116.811745937
_cell_angle_gamma    110.398821846
_symmetry_space_group_name_H-M    'P 1'
loop_
_atom_site_label
_atom_site_type_symbol
_atom_site_fract_x
_atom_site_fract_y
_atom_site_fract_z
_atom_site_occupancy
C1   C   0.867506981946326   0.491943359543651   0.372282928917498   1.0
C2   C   0.774824151717020   0.676432427727110   0.425343402124246   1.0
C3   C   0.606837907474797   0.741814818097097   0.243460308883253   1.0
H4   H   0.682150521537200   0.859878840409306   0.158662636231709   1.0
H5   H   0.535854467861201   0.861940719893030   0.286937833603582   1.0
H6   H   0.699527905196303   0.576911837307840   0.515157220224241   1.0
H7   H   0.909438551198456   0.866644051362065   0.514236601546454   1.0
H8   H   0.001329525580606   0.359152071525236   0.646430069193320   1.0
H9   H   0.171774791884043   0.655118370973994   0.632288499136902   1.0
H10   H   0.746233653187520   0.285949328806128   0.305632115304593   1.0
H11   H   0.473921860061164   0.555818910096233   0.147550822590298   1.0
H12   H   0.933864021905133   0.575450166401682   0.274051224755154   1.0
H13   H   0.132181268854563   0.359756728769495   0.516805841547521   1.0
N17   N   0.056688229041809   0.464670252779684   0.554178079646320   1.0
