data_1
_audit_creation_method   'Generated by vasp2cif'
_cell_length_a    7.67917351414
_cell_length_b    5.10807718267
_cell_length_c    8.14563567809
_cell_angle_alpha    86.7131228466
_cell_angle_beta    120.318340777
_cell_angle_gamma    112.799784875
_symmetry_space_group_name_H-M    'P 1'
loop_
_atom_site_label
_atom_site_type_symbol
_atom_site_fract_x
_atom_site_fract_y
_atom_site_fract_z
_atom_site_occupancy
C1   C   0.934287399723814   0.536632544550258   0.406321476760844   1.0
C2   C   0.782599402737532   0.631678260216823   0.430995647435132   1.0
C3   C   0.655408257273429   0.756814962952362   0.257027413283545   1.0
H4   H   0.767549003230229   0.929488833136702   0.225300850833150   1.0
H5   H   0.561549790271272   0.843627763762200   0.285222847348905   1.0
H6   H   0.665076756744057   0.448049884905927   0.451146273258914   1.0
H7   H   0.881930552921375   0.791564945845728   0.562715966506246   1.0
H8   H   0.954217835708114   0.266060118967225   0.619006463838943   1.0
H9   H   0.173414659979841   0.581967631834750   0.700989475930001   1.0
H10   H   0.841541959592341   0.366993412094033   0.281088371812025   1.0
H11   H   0.537119794649712   0.591540138619862   0.127357824622543   1.0
H12   H   0.061526728515531   0.715444753663306   0.394780686515013   1.0
H13   H   0.144471134890850   0.323603638492273   0.558611441787619   1.0
N17   N   0.059914962512764   0.416961105303045   0.582500288259794   1.0
