data_1
_audit_creation_method   'Generated by vasp2cif'
_cell_length_a    6.72416462201
_cell_length_b    5.71085673114
_cell_length_c    7.66264430875
_cell_angle_alpha    88.5281827647
_cell_angle_beta    116.687911933
_cell_angle_gamma    73.3789741319
_symmetry_space_group_name_H-M    'P 1'
loop_
_atom_site_label
_atom_site_type_symbol
_atom_site_fract_x
_atom_site_fract_y
_atom_site_fract_z
_atom_site_occupancy
C1   C   0.183798148969399   0.400277798999461   0.641037994040566   1.0
C2   C   0.284674872400925   0.596711460321981   0.609103487159847   1.0
C3   C   0.478914392042648   0.623580901848685   0.804975285609903   1.0
H4   H   0.413806082947495   0.668138083072744   0.912342390327818   1.0
H5   H   0.538100364294018   0.773630870288885   0.779188911332661   1.0
H6   H   0.353478245210174   0.547648858943625   0.504591058660190   1.0
H7   H   0.141978258604924   0.775404509088076   0.541791518454834   1.0
H8   H   0.958736201477827   0.401488733180911   0.337842156958948   1.0
H9   H   0.831098547421538   0.613573998207594   0.435548918199884   1.0
H10   H   0.296821129428236   0.211380214320622   0.657844255801381   1.0
H11   H   0.631471108711139   0.453772082156820   0.872831105004453   1.0
H12   H   0.155120095128545   0.414769613727033   0.770245468332734   1.0
H13   H   0.869050018445694   0.311489743617828   0.493363035524354   1.0
N17   N   0.942639035539871   0.434026303071600   0.464169484631427   1.0
