data_1
_audit_creation_method   'Generated by vasp2cif'
_cell_length_a    7.95539752475
_cell_length_b    5.17305813409
_cell_length_c    7.60178082946
_cell_angle_alpha    75.6086812499
_cell_angle_beta    57.6228745788
_cell_angle_gamma    93.2728624652
_symmetry_space_group_name_H-M    'P 1'
loop_
_atom_site_label
_atom_site_type_symbol
_atom_site_fract_x
_atom_site_fract_y
_atom_site_fract_z
_atom_site_occupancy
C1   C   0.635469214013355   0.612913550723569   0.936987561335556   1.0
C2   C   0.650076790983050   0.828482445587014   0.748771308193739   1.0
C3   C   0.814091266905621   0.088702135417343   0.656047786995956   1.0
H4   H   0.785515497073305   0.175188392845975   0.784454632151927   1.0
H5   H   0.818057317088609   0.243784415552064   0.526082649924938   1.0
H6   H   0.686290615558740   0.742889326343359   0.617912781786970   1.0
H7   H   0.501763684796444   0.880288484179665   0.805641341858056   1.0
H8   H   0.448948436785677   0.313555297806531   0.924533268806869   1.0
H9   H   0.322846066270849   0.415891732005640   0.142877319708227   1.0
H10   H   0.774690030621464   0.536486440037272   0.879111775503901   1.0
H11   H   0.966662057146699   0.046400997972256   0.584321244059289   1.0
H12   H   0.604553651583785   0.687973241980515   0.071273628589452   1.0
H13   H   0.474972557821396   0.199428166448470   0.134705780010727   1.0
N17   N   0.459666054840760   0.366657085205773   0.041279866928683   1.0
