data_1
_audit_creation_method   'Generated by vasp2cif'
_cell_length_a    7.37816882507
_cell_length_b    5.31830771102
_cell_length_c    7.71062376674
_cell_angle_alpha    91.0747415015
_cell_angle_beta    116.36829611
_cell_angle_gamma    69.7760259936
_symmetry_space_group_name_H-M    'P 1'
loop_
_atom_site_label
_atom_site_type_symbol
_atom_site_fract_x
_atom_site_fract_y
_atom_site_fract_z
_atom_site_occupancy
C1   C   0.192147859571506   0.395895510575471   0.676045592395333   1.0
C2   C   0.281219923081110   0.584795918124364   0.621427999386356   1.0
C3   C   0.452665199024679   0.644517680408036   0.803394409161626   1.0
H4   H   0.586948811720355   0.458213331717509   0.895718026428426   1.0
H5   H   0.380848911070927   0.755701164649466   0.893083093997269   1.0
H6   H   0.352448979768674   0.492807263595303   0.526454098938245   1.0
H7   H   0.145300329923799   0.775086897790288   0.536837459756725   1.0
H8   H   0.044052587602110   0.280490030891855   0.397589709767715   1.0
H9   H   0.881464132492091   0.570582761847788   0.423995198663867   1.0
H10   H   0.313096310765410   0.189711113802375   0.734765205504715   1.0
H11   H   0.521181080792104   0.767882142451477   0.758805736474343   1.0
H12   H   0.134437664381053   0.468630669319303   0.782506024266475   1.0
H13   H   0.921971831464120   0.272712536958217   0.536064767730664   1.0
N17   N   0.995889464525497   0.378817655954975   0.496389555132637   1.0
