data_1
_audit_creation_method   'Generated by vasp2cif'
_cell_length_a    6.02491000707
_cell_length_b    6.0131716917
_cell_length_c    9.50071042784
_cell_angle_alpha    58.9017991059
_cell_angle_beta    123.219542813
_cell_angle_gamma    100.116726676
_symmetry_space_group_name_H-M    'P 1'
loop_
_atom_site_label
_atom_site_type_symbol
_atom_site_fract_x
_atom_site_fract_y
_atom_site_fract_z
_atom_site_occupancy
C1   C   0.884999714692974   0.607250014741616   0.374680521905105   1.0
C2   C   0.721018527508818   0.770894618618129   0.376970849051126   1.0
C3   C   0.536078598790596   0.000143667288825   0.170944896673816   1.0
H4   H   0.652286246391547   0.125541053783820   0.111231004794234   1.0
H5   H   0.425158502504935   0.117593425217933   0.175646742696451   1.0
H6   H   0.602974991182052   0.646171853837338   0.436265500698902   1.0
H7   H   0.857174628367055   0.846896610491065   0.473438293634743   1.0
H8   H   0.977703975829286   0.268799543625150   0.647134241814683   1.0
H9   H   0.213880845968788   0.458216408128656   0.669386396979228   1.0
H10   H   0.757873825597315   0.515033514233075   0.288817829990272   1.0
H11   H   0.392813795204859   0.931535471723329   0.071488005712048   1.0
H12   H   0.007600519559105   0.724302907366486   0.317792658480165   1.0
H13   H   0.184927720365451   0.268398747244881   0.580284257912361   1.0
N17   N   0.079046613979614   0.384589051898281   0.581150166793535   1.0
