data_1
_audit_creation_method   'Generated by vasp2cif'
_cell_length_a    6.45183966146
_cell_length_b    7.23208325795
_cell_length_c    6.32866294129
_cell_angle_alpha    77.8250744016
_cell_angle_beta    98.4852066663
_cell_angle_gamma    111.503979337
_symmetry_space_group_name_H-M    'P 1'
loop_
_atom_site_label
_atom_site_type_symbol
_atom_site_fract_x
_atom_site_fract_y
_atom_site_fract_z
_atom_site_occupancy
C1   C   0.212742111200065   0.683374672428009   0.530932567400832   1.0
C2   C   0.426565911205714   0.275527012375179   0.413295236503622   1.0
C3   C   0.333094526174499   0.446251759125104   0.371918585027991   1.0
C4   C   0.286370041183815   0.499190016530981   0.579319703677633   1.0
H5   H   0.765708632895766   0.461128539123337   0.427594365475237   1.0
H6   H   0.724866785439964   0.223259187695731   0.547058801358681   1.0
H7   H   0.667859633331908   0.379499360567706   0.674080915898372   1.0
H8   H   0.347171829539434   0.817876389159750   0.463921505105581   1.0
H9   H   0.069743637149877   0.664576627423358   0.410083896514855   1.0
H10   H   0.167895717621903   0.710713639163345   0.677575327083282   1.0
H11   H   0.177634087639753   0.399644594827173   0.268051054322640   1.0
H12   H   0.446595553829276   0.581032118671253   0.276761774283749   1.0
H13   H   0.158189125626464   0.367724086953004   0.663202946668420   1.0
H14   H   0.435335504683003   0.530514172528541   0.693698822778565   1.0
H15   H   0.327354352488882   0.143038816318388   0.519318356896591   1.0
H16   H   0.441930115067556   0.232072040918517   0.263369703019535   1.0
N20   N   0.661963546897482   0.339894572194332   0.525043228597035   1.0
