data_1
_audit_creation_method   'Generated by vasp2cif'
_cell_length_a    6.69123272382
_cell_length_b    5.9160318032
_cell_length_c    7.59409730878
_cell_angle_alpha    70.142461642
_cell_angle_beta    84.556448445
_cell_angle_gamma    90.8325742839
_symmetry_space_group_name_H-M    'P 1'
loop_
_atom_site_label
_atom_site_type_symbol
_atom_site_fract_x
_atom_site_fract_y
_atom_site_fract_z
_atom_site_occupancy
C1   C   0.460214564672320   0.627226217929703   0.817927631473133   1.0
C2   C   0.486310538798023   0.229462229906403   0.498766034401484   1.0
C3   C   0.408539110313548   0.340628885961401   0.644289379011049   1.0
C4   C   0.553766315742209   0.530222650631799   0.667315655425710   1.0
H5   H   0.355296900479693   0.467584359652435   0.267570677143603   1.0
H6   H   0.561412708888462   0.341293538667465   0.205570585875755   1.0
H7   H   0.583791031413796   0.567138927855268   0.288014054517547   1.0
H8   H   0.326388445067771   0.725028104714639   0.772461914255473   1.0
H9   H   0.410798502882713   0.477491303384028   0.947230409417131   1.0
H10   H   0.566013864028584   0.746387340609665   0.849648992297567   1.0
H11   H   0.381774771598529   0.192966570939589   0.779573003292938   1.0
H12   H   0.261936872009322   0.416631229163315   0.611265057479926   1.0
H13   H   0.697158366624159   0.449674904396424   0.705888457505054   1.0
H14   H   0.589067769047837   0.680540484011409   0.534025766763982   1.0
H15   H   0.637423521233643   0.165306244677815   0.519319895157032   1.0
H16   H   0.385744346273562   0.082504393775487   0.498726637567259   1.0
N20   N   0.497933744096130   0.414808645637827   0.302026171673440   1.0
