data_1
_audit_creation_method   'Generated by vasp2cif'
_cell_length_a    6.50891584997
_cell_length_b    6.08579089223
_cell_length_c    6.21975735807
_cell_angle_alpha    80.7337331783
_cell_angle_beta    82.1929546314
_cell_angle_gamma    88.1381041551
_symmetry_space_group_name_H-M    'P 1'
loop_
_atom_site_label
_atom_site_type_symbol
_atom_site_fract_x
_atom_site_fract_y
_atom_site_fract_z
_atom_site_occupancy
C1   C   0.396241724787444   0.715982648857370   0.213233484824606   1.0
C2   C   0.560440845605555   0.891991330840170   0.205497841680874   1.0
C3   C   0.503453190777364   0.055259689474219   0.366689113068730   1.0
H4   H   0.480882771363618   0.967938614366595   0.536344032435458   1.0
H5   H   0.623340874627154   0.179955754921302   0.351039613998914   1.0
H6   H   0.359081116191817   0.140553959095754   0.331916351046644   1.0
H7   H   0.875513603072164   0.893193655072714   0.261426362088670   1.0
H8   H   0.598649734660619   0.980101151843002   0.037882921914566   1.0
H9   H   0.452164537513376   0.588360258656827   0.113668438490407   1.0
H10   H   0.261735729207601   0.797649923023783   0.145195764718736   1.0
H11   H   0.346923943059046   0.636341785755782   0.382354145160655   1.0
H12   H   0.821945723710563   0.671064071222311   0.152950846325275   1.0
H13   H   0.739275257138338   0.681495058382339   0.418115707727750   1.0
N17   N   0.764212627493336   0.775621473724250   0.262533559073994   1.0
