data_1
_audit_creation_method   'Generated by vasp2cif'
_cell_length_a    6.27673569746
_cell_length_b    5.79810577261
_cell_length_c    6.86134624399
_cell_angle_alpha    95.6932715378
_cell_angle_beta    94.2822411317
_cell_angle_gamma    83.3665377141
_symmetry_space_group_name_H-M    'P 1'
loop_
_atom_site_label
_atom_site_type_symbol
_atom_site_fract_x
_atom_site_fract_y
_atom_site_fract_z
_atom_site_occupancy
C1   C   0.612774007369171   0.703159467864713   0.615629071804314   1.0
C2   C   0.452286099146067   0.529842944709558   0.636097170527495   1.0
C3   C   0.335377745234688   0.571389280121588   0.825448412258157   1.0
H4   H   0.452036127445208   0.559228435773594   0.951080689138156   1.0
H5   H   0.223007626422260   0.442331378360079   0.831958620214928   1.0
H6   H   0.247009691528579   0.746048734473386   0.837593073573644   1.0
H7   H   0.345919000694472   0.505386728942531   0.331664736945796   1.0
H8   H   0.529805918207574   0.350678140209622   0.616377093767537   1.0
H9   H   0.744828203983937   0.680608750965286   0.727397375250359   1.0
H10   H   0.679599878171117   0.674844334532865   0.471543457225905   1.0
H11   H   0.536404123108677   0.883071513719174   0.635714254663496   1.0
H12   H   0.167142750509095   0.435197998638520   0.474624857259659   1.0
H13   H   0.202093551094096   0.716653877561024   0.468654300967881   1.0
N17   N   0.280750308820666   0.549351049556579   0.465524731216737   1.0
