data_1
_audit_creation_method   'Generated by vasp2cif'
_cell_length_a    6.79290405151
_cell_length_b    5.79529383719
_cell_length_c    6.33846944417
_cell_angle_alpha    96.7133063634
_cell_angle_beta    86.219700498
_cell_angle_gamma    96.8411855774
_symmetry_space_group_name_H-M    'P 1'
loop_
_atom_site_label
_atom_site_type_symbol
_atom_site_fract_x
_atom_site_fract_y
_atom_site_fract_z
_atom_site_occupancy
C1   C   0.568807231193199   0.757584900431400   0.295410998003987   1.0
C2   C   0.584181612907275   0.574681850762150   0.446422425996154   1.0
C3   C   0.781706629295763   0.597539053899820   0.552063905419569   1.0
H4   H   0.901982857693208   0.583454361086820   0.430031711744168   1.0
H5   H   0.785487693443846   0.460550289307633   0.655801451491098   1.0
H6   H   0.808334030472124   0.768339557083869   0.645814903255209   1.0
H7   H   0.281640089747574   0.565391039784981   0.566384832267671   1.0
H8   H   0.549302862734574   0.398498925397514   0.365547489413252   1.0
H9   H   0.672872709150690   0.729705632393196   0.158451365140580   1.0
H10   H   0.419391754455935   0.743653077102914   0.237685584542957   1.0
H11   H   0.606050485307317   0.934879206672905   0.374048381442187   1.0
H12   H   0.429286973019732   0.481153941410695   0.733117465883701   1.0
H13   H   0.436225456277839   0.766382491154130   0.705462400703954   1.0
N17   N   0.421303008597267   0.599713096384617   0.624441536794246   1.0
