data_1
_audit_creation_method   'Generated by vasp2cif'
_cell_length_a    8.24626386293
_cell_length_b    4.8001876972
_cell_length_c    7.07495059323
_cell_angle_alpha    110.758510133
_cell_angle_beta    77.7095186689
_cell_angle_gamma    107.928635095
_symmetry_space_group_name_H-M    'P 1'
loop_
_atom_site_label
_atom_site_type_symbol
_atom_site_fract_x
_atom_site_fract_y
_atom_site_fract_z
_atom_site_occupancy
C1   C   0.674574885025827   0.335676612991435   0.333171456606252   1.0
C2   C   0.609904763164053   0.099601557676891   0.449402151334652   1.0
C3   C   0.730837140759881   0.150511345467571   0.601641702911472   1.0
H4   H   0.858819733004950   0.141154117949277   0.522317552227314   1.0
H5   H   0.687347304361673   0.979849940637301   0.682170571430390   1.0
H6   H   0.742770226030316   0.379739593849088   0.714558942098719   1.0
H7   H   0.345738220425766   0.105816406387696   0.475589599716521   1.0
H8   H   0.588322615888650   0.866712139426447   0.341468205304011   1.0
H9   H   0.720226639928200   0.566169487326391   0.437313686964472   1.0
H10   H   0.782832036438080   0.276359230914004   0.221636087475517   1.0
H11   H   0.576452933472062   0.334120015755232   0.250367997577541   1.0
H12   H   0.381403222904687   0.943130687369667   0.632362745012941   1.0
H13   H   0.436795157346779   0.322675246865899   0.685108717556190   1.0
N17   N   0.431856079719694   0.117018665456968   0.566744020884933   1.0
