data_1
_audit_creation_method   'Generated by vasp2cif'
_cell_length_a    6.90326083374
_cell_length_b    4.41757613616
_cell_length_c    8.00667159958
_cell_angle_alpha    90.0963643446
_cell_angle_beta    83.197741083
_cell_angle_gamma    99.7058489108
_symmetry_space_group_name_H-M    'P 1'
loop_
_atom_site_label
_atom_site_type_symbol
_atom_site_fract_x
_atom_site_fract_y
_atom_site_fract_z
_atom_site_occupancy
C1   C   0.446527162607950   0.642377771582680   0.681413396176261   1.0
C2   C   0.436028674366184   0.461267715931072   0.519542444219816   1.0
C3   C   0.330696997118004   0.604329464431103   0.390702964496605   1.0
H4   H   0.184179176107378   0.631329857627698   0.450350599798448   1.0
H5   H   0.312894824365337   0.462947820817192   0.280073601959799   1.0
H6   H   0.410918555229898   0.831482427391606   0.348278459076667   1.0
H7   H   0.640416841111602   0.311944246668780   0.327622118131473   1.0
H8   H   0.363601593050305   0.224858484146708   0.548092754672723   1.0
H9   H   0.527634653020328   0.544214877505027   0.770371607410553   1.0
H10   H   0.516481828819266   0.881210576382919   0.656686098978533   1.0
H11   H   0.295738782957741   0.642307035638325   0.741546998991346   1.0
H12   H   0.732910299128257   0.645042082541345   0.405254719561654   1.0
H13   H   0.724518346810143   0.324924624870349   0.517475832116588   1.0
N17   N   0.647683395816934   0.433009327627886   0.438552729926670   1.0
