data_1
_audit_creation_method   'Generated by vasp2cif'
_cell_length_a    6.18882632363
_cell_length_b    6.10223411833
_cell_length_c    6.06896630399
_cell_angle_alpha    80.172872476
_cell_angle_beta    102.085967422
_cell_angle_gamma    98.4554994032
_symmetry_space_group_name_H-M    'P 1'
loop_
_atom_site_label
_atom_site_type_symbol
_atom_site_fract_x
_atom_site_fract_y
_atom_site_fract_z
_atom_site_occupancy
H4   H   0.515266411235845   0.674402391611282   0.375289544913944   1.0
H5   H   0.720096297674241   0.387734755949095   0.315863992846831   1.0
H6   H   0.668061332357366   0.563085929007658   0.617146891069114   1.0
H7   H   0.180909042090266   0.446735769333619   0.472649642505176   1.0
H8   H   0.349132536901150   0.330205163212984   0.730928966374678   1.0
H9   H   0.312191192729517   0.621277286107363   0.683556743489180   1.0
H10   H   0.425545620058343   0.322998383711165   0.236672013204697   1.0
H11   H   0.570699205070569   0.191314610295053   0.501640158625389   1.0
C12   C   0.325944865830736   0.478651055648181   0.604511230688629   1.0
C13   C   0.564460137775230   0.343358821850903   0.377894831560704   1.0
N15   N   0.528526705595912   0.531161501199748   0.494300222943792   1.0
