data_1
_audit_creation_method   'Generated by vasp2cif'
_cell_length_a    6.13219180306
_cell_length_b    6.16242535495
_cell_length_c    6.0911690037
_cell_angle_alpha    80.8002164403
_cell_angle_beta    102.291211052
_cell_angle_gamma    99.7725282351
_symmetry_space_group_name_H-M    'P 1'
loop_
_atom_site_label
_atom_site_type_symbol
_atom_site_fract_x
_atom_site_fract_y
_atom_site_fract_z
_atom_site_occupancy
H4   H   0.393214210688278   0.638214648937783   0.284909775346129   1.0
H5   H   0.662653450311218   0.399894287641857   0.273046113455052   1.0
H6   H   0.606533229313548   0.658245020537564   0.499146680461052   1.0
H7   H   0.155939445194384   0.393037841343130   0.523343346201145   1.0
H8   H   0.388059081469670   0.417115402497849   0.756442071330405   1.0
H9   H   0.257594610883139   0.656153357666625   0.623889519286919   1.0
H10   H   0.393537363591704   0.244921154725759   0.301939343247192   1.0
H11   H   0.616836399321230   0.259176979924980   0.543700227941862   1.0
C12   C   0.303341117961409   0.500936599018111   0.598131994150705   1.0
C13   C   0.540871054628781   0.347802403513079   0.384325411138420   1.0
N15   N   0.465439871783019   0.551967188615961   0.435422077367633   1.0
