data_1
_audit_creation_method   'Generated by vasp2cif'
_cell_length_a    6.20887280921
_cell_length_b    6.11873741185
_cell_length_c    6.0511804617
_cell_angle_alpha    79.1378483867
_cell_angle_beta    101.59227854
_cell_angle_gamma    98.6390824546
_symmetry_space_group_name_H-M    'P 1'
loop_
_atom_site_label
_atom_site_type_symbol
_atom_site_fract_x
_atom_site_fract_y
_atom_site_fract_z
_atom_site_occupancy
H4   H   0.527886368928286   0.672066001291881   0.368039009484185   1.0
H5   H   0.682909700688903   0.359291343165602   0.294346263268387   1.0
H6   H   0.668306982281216   0.538790162922012   0.606976036261841   1.0
H7   H   0.178155593673239   0.485630791167445   0.470275293066336   1.0
H8   H   0.332773853078422   0.345522099869015   0.726066240132603   1.0
H9   H   0.334959069427875   0.643550345235923   0.682132371605917   1.0
H10   H   0.387325360878172   0.332014697362418   0.224675898603898   1.0
H11   H   0.520893132242051   0.177751257251700   0.484536525636919   1.0
C12   C   0.326635363289761   0.498234355679102   0.600387217361991   1.0
C13   C   0.530110062252639   0.332964775020976   0.362496870514612   1.0
N15   N   0.525662272151045   0.525015810986027   0.485207075515476   1.0
