data_1
_audit_creation_method   'Generated by vasp2cif'
_cell_length_a    6.19260709241
_cell_length_b    6.03338383992
_cell_length_c    6.05813978787
_cell_angle_alpha    87.0203045006
_cell_angle_beta    84.3107455631
_cell_angle_gamma    76.5177093771
_symmetry_space_group_name_H-M    'P 1'
loop_
_atom_site_label
_atom_site_type_symbol
_atom_site_fract_x
_atom_site_fract_y
_atom_site_fract_z
_atom_site_occupancy
H4   H   0.401387022993397   0.689366873497221   0.338154397560821   1.0
H5   H   0.277244064231844   0.340178097349010   0.352039809377970   1.0
H6   H   0.608902199295784   0.481643393201992   0.235422439369650   1.0
H7   H   0.559687972916613   0.661573464022695   0.689040756095395   1.0
H8   H   0.783395691331620   0.439793052580093   0.577634164920923   1.0
H9   H   0.745954360923889   0.723885304776196   0.462556065682556   1.0
H10   H   0.284526783722065   0.437761276580822   0.624624579567040   1.0
H11   H   0.503088919771493   0.211262907242748   0.513967824545873   1.0
C12   C   0.662529157199344   0.595898678396281   0.539688057240312   1.0
C13   C   0.383682770560426   0.368315871646921   0.474818613105818   1.0
N15   N   0.512453893489692   0.540502983256943   0.379278646196838   1.0
