data_1
_audit_creation_method   'Generated by vasp2cif'
_cell_length_a    6.10971157398
_cell_length_b    4.2394541704
_cell_length_c    8.50696800431
_cell_angle_alpha    91.4858132145
_cell_angle_beta    81.8129759565
_cell_angle_gamma    97.6519858766
_symmetry_space_group_name_H-M    'P 1'
loop_
_atom_site_label
_atom_site_type_symbol
_atom_site_fract_x
_atom_site_fract_y
_atom_site_fract_z
_atom_site_occupancy
H4   H   0.732248293327196   0.308852667945672   0.444172607382228   1.0
H5   H   0.388645606917109   0.487008825625409   0.584430419541562   1.0
H6   H   0.517513977824066   0.848155456565379   0.599958455643446   1.0
H7   H   0.447559111994941   0.493158028043574   0.299593164613611   1.0
H8   H   0.308815097456851   0.819130210876466   0.379188791996867   1.0
H9   H   0.600963869437876   0.880150992532023   0.303536206991886   1.0
H10   H   0.748358220299018   0.443908209612609   0.645166677319764   1.0
H11   H   0.871788626785097   0.692326298056720   0.480983865783003   1.0
C12   C   0.464857619387679   0.717138830153083   0.365185289475420   1.0
C13   C   0.734284529828955   0.512040431844682   0.525058232883254   1.0
N15   N   0.518186867739274   0.648737471080842   0.528041703931592   1.0
