data_1
_audit_creation_method   'Generated by vasp2cif'
_cell_length_a    6.22569471679
_cell_length_b    4.29662301826
_cell_length_c    8.30510933417
_cell_angle_alpha    91.2001359457
_cell_angle_beta    82.1669437416
_cell_angle_gamma    97.7626881331
_symmetry_space_group_name_H-M    'P 1'
loop_
_atom_site_label
_atom_site_type_symbol
_atom_site_fract_x
_atom_site_fract_y
_atom_site_fract_z
_atom_site_occupancy
H4   H   0.709463563538186   0.257637298101791   0.437257979204823   1.0
H5   H   0.372240723683788   0.450501430187963   0.570759058418936   1.0
H6   H   0.510389455337879   0.797098005413261   0.593765042251725   1.0
H7   H   0.446041841334584   0.465390431787000   0.280645668767683   1.0
H8   H   0.326829847616615   0.803380985836512   0.356861984544374   1.0
H9   H   0.616110777768242   0.831580253285686   0.290960353695752   1.0
H10   H   0.708087068248219   0.367646031886267   0.647953677107694   1.0
H11   H   0.853064324802261   0.622673154729938   0.490719976179669   1.0
C12   C   0.471484924073401   0.683731129170440   0.348722863372935   1.0
C13   C   0.710000420343903   0.449906600671163   0.524652693666695   1.0
N15   N   0.507067057680885   0.603175749977112   0.518501036022698   1.0
