data_1
_audit_creation_method   'Generated by vasp2cif'
_cell_length_a    8.14414002521
_cell_length_b    4.34428910015
_cell_length_c    7.17232470275
_cell_angle_alpha    120.269008732
_cell_angle_beta    92.8877321761
_cell_angle_gamma    94.3464326745
_symmetry_space_group_name_H-M    'P 1'
loop_
_atom_site_label
_atom_site_type_symbol
_atom_site_fract_x
_atom_site_fract_y
_atom_site_fract_z
_atom_site_occupancy
H4   H   0.453373754509169   0.509928957030171   0.291745014834268   1.0
H5   H   0.547897647544223   0.070114841640017   0.634898348288534   1.0
H6   H   0.594133208074650   0.272906103714265   0.500855024557942   1.0
H7   H   0.258341373755537   0.951455503255373   0.507387307383357   1.0
H8   H   0.328081928342544   0.418358610319877   0.630916421398401   1.0
H9   H   0.299154109822851   0.137131299569703   0.340061784443389   1.0
H10   H   0.669863268906392   0.668901006070850   0.325668673955620   1.0
H11   H   0.525320482489893   0.732454489178682   0.155647272228540   1.0
C12   C   0.336066058854807   0.151846096644171   0.492661749479681   1.0
C13   C   0.543403791599724   0.717096853098019   0.302019730392703   1.0
N15   N   0.513355574580429   0.071485362113404   0.493645269979970   1.0
