data_1
_audit_creation_method   'Generated by vasp2cif'
_cell_length_a    6.27163764453
_cell_length_b    4.46748859218
_cell_length_c    7.88850666143
_cell_angle_alpha    80.2555674978
_cell_angle_beta    85.4202392897
_cell_angle_gamma    82.7928163292
_symmetry_space_group_name_H-M    'P 1'
loop_
_atom_site_label
_atom_site_type_symbol
_atom_site_fract_x
_atom_site_fract_y
_atom_site_fract_z
_atom_site_occupancy
H4   H   0.311832721317558   0.132055877694000   0.536703082514606   1.0
H5   H   0.656802198824629   0.353278468915583   0.482116551447234   1.0
H6   H   0.528941669307635   0.680907653698569   0.397570415374425   1.0
H7   H   0.479118568080359   0.366120716176759   0.761529939188456   1.0
H8   H   0.591085917456880   0.715697091149927   0.686797762204570   1.0
H9   H   0.307483494959634   0.697074763291198   0.676109773446868   1.0
H10   H   0.386865314616408   0.253978039311342   0.312527237541019   1.0
H11   H   0.189775862523177   0.482956675953879   0.426578704549840   1.0
C12   C   0.468504768665532   0.574787764745807   0.667198560230297   1.0
C13   C   0.336639229894118   0.324959011080445   0.436354274065827   1.0
N15   N   0.510732147559622   0.489506064963884   0.489041787667915   1.0
