data_1
_audit_creation_method   'Generated by vasp2cif'
_cell_length_a    6.10626434348
_cell_length_b    6.21723661656
_cell_length_c    6.22070808975
_cell_angle_alpha    90.2559236155
_cell_angle_beta    102.064554999
_cell_angle_gamma    78.917811185
_symmetry_space_group_name_H-M    'P 1'
loop_
_atom_site_label
_atom_site_type_symbol
_atom_site_fract_x
_atom_site_fract_y
_atom_site_fract_z
_atom_site_occupancy
C1   C   0.365782194484957   0.406115913307744   0.594009159818995   1.0
C2   C   0.511280308842380   0.521194284572950   0.486762340311117   1.0
H3   H   0.685659145800173   0.508175496762817   0.235385755682749   1.0
H4   H   0.671780764344085   0.785589067923006   0.509541011508276   1.0
H5   H   0.358031339618961   0.244476329484961   0.528085982771884   1.0
H6   H   0.192380130579664   0.504024735187087   0.566599570767728   1.0
H7   H   0.433664609117905   0.388754604486429   0.771525961446613   1.0
H8   H   0.518750111185156   0.761822823532562   0.710005098524967   1.0
H9   H   0.543410029374172   0.295297587740372   0.251767623761886   1.0
N13   N   0.581377770630162   0.439570522687767   0.310612088134185   1.0
N14   N   0.565209864632180   0.705358429287109   0.569223077473936   1.0
