data_1
_audit_creation_method   'Generated by vasp2cif'
_cell_length_a    6.09047277273
_cell_length_b    6.25477696824
_cell_length_c    6.25012073495
_cell_angle_alpha    90.1341030108
_cell_angle_beta    101.911716092
_cell_angle_gamma    102.209369621
_symmetry_space_group_name_H-M    'P 1'
loop_
_atom_site_label
_atom_site_type_symbol
_atom_site_fract_x
_atom_site_fract_y
_atom_site_fract_z
_atom_site_occupancy
C1   C   0.637988991144447   0.506157617708404   0.519893504843772   1.0
C2   C   0.501534931893872   0.621078462543295   0.636496569222153   1.0
H3   H   0.335953090613948   0.601478729987313   0.894282802116500   1.0
H4   H   0.331899738422550   0.874808707203719   0.619963648672730   1.0
H5   H   0.764890804214701   0.441607802933469   0.636537872144523   1.0
H6   H   0.725901366443232   0.615187360601318   0.413525514203094   1.0
H7   H   0.520621456404442   0.368265083419459   0.419214593297262   1.0
H8   H   0.479074854826727   0.857023552404534   0.413889335661281   1.0
H9   H   0.486375246721138   0.399339898442378   0.874286852947819   1.0
N13   N   0.442661060503696   0.539984612067080   0.817145919186942   1.0
N14   N   0.437702029819945   0.799086699423498   0.555529427553424   1.0
