data_1
_audit_creation_method   'Generated by vasp2cif'
_cell_length_a    6.39485322838
_cell_length_b    4.22243854973
_cell_length_c    8.25405781999
_cell_angle_alpha    89.8699298865
_cell_angle_beta    96.7641578153
_cell_angle_gamma    102.370447978
_symmetry_space_group_name_H-M    'P 1'
loop_
_atom_site_label
_atom_site_type_symbol
_atom_site_fract_x
_atom_site_fract_y
_atom_site_fract_z
_atom_site_occupancy
C1   C   0.415627211029928   0.887349847730455   0.608341517869022   1.0
C2   C   0.540724280047364   0.828424699974128   0.473297426476208   1.0
H3   H   0.378208434850926   0.071304140780590   0.307291701793012   1.0
H4   H   0.574627204292007   0.904586742000326   0.230575760039301   1.0
H5   H   0.321306190609569   0.656338141849695   0.645213069882672   1.0
H6   H   0.525124350526710   0.995649272102199   0.715182807733740   1.0
H7   H   0.305439616122001   0.044529605285973   0.569377820581231   1.0
H8   H   0.784675783452371   0.612847783718294   0.415479312694089   1.0
H9   H   0.732573652960724   0.581628479585689   0.616031430072496   1.0
N13   N   0.499713834237127   0.949052684813225   0.327888883584833   1.0
N14   N   0.690745399811988   0.653233596893628   0.501418820732901   1.0
