data_1
_audit_creation_method   'Generated by vasp2cif'
_cell_length_a    7.50866324619
_cell_length_b    4.24114788464
_cell_length_c    7.25417159171
_cell_angle_alpha    90.783786925
_cell_angle_beta    92.951747617
_cell_angle_gamma    79.0922549393
_symmetry_space_group_name_H-M    'P 1'
loop_
_atom_site_label
_atom_site_type_symbol
_atom_site_fract_x
_atom_site_fract_y
_atom_site_fract_z
_atom_site_occupancy
C1   C   0.634575085398815   0.890728066594995   0.523836874540940   1.0
C2   C   0.488183047440657   0.710317882022643   0.464243411733989   1.0
H3   H   0.365502189988554   0.767646432537177   0.709529201105163   1.0
H4   H   0.265561723614219   0.542873712264814   0.545432199251394   1.0
H5   H   0.755559046265084   0.718679682941342   0.570811883565923   1.0
H6   H   0.671584191879823   0.024045189554350   0.408774799341096   1.0
H7   H   0.593319427210254   0.053156524126180   0.638245349636492   1.0
H8   H   0.389126971601165   0.465384249950539   0.244999260006956   1.0
H9   H   0.577915801897539   0.623569954078448   0.202446958807649   1.0
N13   N   0.369831759367592   0.657475803495487   0.583690150061372   1.0
N14   N   0.482790201966012   0.595908648432328   0.292996247943670   1.0
