data_1
_audit_creation_method   'Generated by vasp2cif'
_cell_length_a    5.87281148594
_cell_length_b    5.76265646375
_cell_length_c    5.82537677447
_cell_angle_alpha    90.7587322547
_cell_angle_beta    96.4340027683
_cell_angle_gamma    88.4805604615
_symmetry_space_group_name_H-M    'P 1'
loop_
_atom_site_label
_atom_site_type_symbol
_atom_site_fract_x
_atom_site_fract_y
_atom_site_fract_z
_atom_site_occupancy
H4   H   0.483513801120281   0.507277141240351   0.247288619271202   1.0
H5   H   0.643750705826669   0.360149054452457   0.453050340194722   1.0
H6   H   0.628780771608881   0.651145105366254   0.462992884604851   1.0
H7   H   0.244096487345338   0.331017754361518   0.514667167808973   1.0
H8   H   0.397354275483963   0.494523743759721   0.742841246780806   1.0
H9   H   0.219642168079254   0.641893025653509   0.517628730741961   1.0
C10   C   0.332110259998267   0.491858889481712   0.560545920394212   1.0
N12   N   0.534718269034968   0.503569495805387   0.421989540011808   1.0
