data_1
_audit_creation_method   'Generated by vasp2cif'
_cell_length_a    5.81609034942
_cell_length_b    5.77930646997
_cell_length_c    5.90809855088
_cell_angle_alpha    86.1812594293
_cell_angle_beta    83.2065062335
_cell_angle_gamma    89.3567442455
_symmetry_space_group_name_H-M    'P 1'
loop_
_atom_site_label
_atom_site_type_symbol
_atom_site_fract_x
_atom_site_fract_y
_atom_site_fract_z
_atom_site_occupancy
H4   H   0.288359549869149   0.360594020683770   0.512660911397717   1.0
H5   H   0.534750633217612   0.399564610272357   0.340463539456770   1.0
H6   H   0.357993137123259   0.623498133012106   0.386558096661233   1.0
H7   H   0.617476730883368   0.371917313115063   0.735639567360955   1.0
H8   H   0.684932940202174   0.654748549860180   0.602930811947367   1.0
H9   H   0.421423951223233   0.608449677792905   0.789867501459540   1.0
C10   C   0.547136639425744   0.532384259186031   0.664558435706802   1.0
N12   N   0.423346346960777   0.475608117428351   0.463679332633511   1.0
