data_1
_audit_creation_method   'Generated by vasp2cif'
_cell_length_a    6.10907473086
_cell_length_b    4.24268558108
_cell_length_c    7.75825229503
_cell_angle_alpha    98.833766935
_cell_angle_beta    78.9422630533
_cell_angle_gamma    93.2464804743
_symmetry_space_group_name_H-M    'P 1'
loop_
_atom_site_label
_atom_site_type_symbol
_atom_site_fract_x
_atom_site_fract_y
_atom_site_fract_z
_atom_site_occupancy
H4   H   0.301861791105317   0.741793483149223   0.503096721841629   1.0
H5   H   0.568697878652586   0.704782812246528   0.390007394401501   1.0
H6   H   0.408490329186812   0.969376425341281   0.346805873069997   1.0
H7   H   0.565589965748892   0.975485357337114   0.691176147438952   1.0
H8   H   0.673086610608841   0.226990843979770   0.529054301612973   1.0
H9   H   0.390176566993361   0.266597619826783   0.649345333901444   1.0
C10   C   0.524510156933744   0.102999562024770   0.590576524174942   1.0
N12   N   0.444329328538544   0.862987638029082   0.449427044612172   1.0
