data_1
_audit_creation_method   'Generated by vasp2cif'
_cell_length_a    6.31719426636
_cell_length_b    4.27259124555
_cell_length_c    7.96622478116
_cell_angle_alpha    107.43854329
_cell_angle_beta    84.3826890608
_cell_angle_gamma    77.562965669
_symmetry_space_group_name_H-M    'P 1'
loop_
_atom_site_label
_atom_site_type_symbol
_atom_site_fract_x
_atom_site_fract_y
_atom_site_fract_z
_atom_site_occupancy
H4   H   0.709397373061165   0.293314911528206   0.467405620625129   1.0
H5   H   0.542494864913799   0.606558240258636   0.646267098666215   1.0
H6   H   0.724969845048335   0.685482028922515   0.508282072175767   1.0
H7   H   0.344748482584464   0.418250848642536   0.392326709012238   1.0
H8   H   0.344802664646757   0.853995829290760   0.450608886139342   1.0
H9   H   0.533495268234248   0.547025751894481   0.260960145564837   1.0
C10   C   0.446313072525804   0.594169539938392   0.394346284503833   1.0
N12   N   0.613880356334235   0.542158743727555   0.513444991208225   1.0
