data_1
_audit_creation_method   'Generated by vasp2cif'
_cell_length_a    7.88226159716
_cell_length_b    4.16763755812
_cell_length_c    5.84347489537
_cell_angle_alpha    84.9835428578
_cell_angle_beta    92.8828137738
_cell_angle_gamma    89.1169620525
_symmetry_space_group_name_H-M    'P 1'
loop_
_atom_site_label
_atom_site_type_symbol
_atom_site_fract_x
_atom_site_fract_y
_atom_site_fract_z
_atom_site_occupancy
H4   H   0.400344259339285   0.995344240464554   0.304246493450748   1.0
H5   H   0.591227139954945   0.042736934806882   0.442663927182579   1.0
H6   H   0.503313371624486   0.339505166803086   0.268554616902023   1.0
H7   H   0.356676292091286   0.068736065610032   0.707385268091933   1.0
H8   H   0.474270858816688   0.431082118270588   0.677284471127720   1.0
H9   H   0.271209977698113   0.403906591769456   0.524314018010315   1.0
C10   C   0.387051992615604   0.275374424314123   0.590564540758471   1.0
N12   N   0.475585876975316   0.153219309100102   0.389657316214752   1.0
