data_1
_audit_creation_method   'Generated by vasp2cif'
_cell_length_a    8.35878984531
_cell_length_b    4.57369226471
_cell_length_c    7.23188450893
_cell_angle_alpha    52.4122630429
_cell_angle_beta    106.834795673
_cell_angle_gamma    115.821741917
_symmetry_space_group_name_H-M    'P 1'
loop_
_atom_site_label
_atom_site_type_symbol
_atom_site_fract_x
_atom_site_fract_y
_atom_site_fract_z
_atom_site_occupancy
H4   H   0.620561862145884   0.622787317526758   0.552426865445398   1.0
H5   H   0.424869577393196   0.660739167373869   0.403032460376586   1.0
H6   H   0.431569805118663   0.378725328201128   0.699175619527082   1.0
H7   H   0.509518296003272   0.234194596249310   0.392353591850579   1.0
H8   H   0.519256562356347   0.937279089607792   0.705721482172130   1.0
H9   H   0.309606627394018   0.973048874968541   0.551240901235566   1.0
C10   C   0.452733253148182   0.124706061590160   0.550004862813402   1.0
N12   N   0.485136590444910   0.474136020892864   0.551181617366993   1.0
