data_1
_audit_creation_method   'Generated by vasp2cif'
_cell_length_a    6.03520574331
_cell_length_b    6.06945449448
_cell_length_c    6.041620353
_cell_angle_alpha    100.846983608
_cell_angle_beta    94.5726140569
_cell_angle_gamma    93.9022932308
_symmetry_space_group_name_H-M    'P 1'
loop_
_atom_site_label
_atom_site_type_symbol
_atom_site_fract_x
_atom_site_fract_y
_atom_site_fract_z
_atom_site_occupancy
C1   C   0.305432116266211   0.284619404081404   0.330065343355940   1.0
H2   H   0.075800646046687   0.250941424074455   0.558693286856858   1.0
H3   H   0.067982325646305   0.510220883817723   0.308838516105226   1.0
H4   H   0.569206865966088   0.088702907405661   0.312335884674077   1.0
H5   H   0.564463334893276   0.278702299345483   0.129458962707865   1.0
H6   H   0.277464720974294   0.524852544914083   0.132211537703036   1.0
H7   H   0.287507488446373   0.073719642347427   0.559358942531595   1.0
N11   N   0.210306482234991   0.188614943995944   0.485815519770561   1.0
N12   N   0.205427617130766   0.445216257067962   0.244995572460510   1.0
N13   N   0.496906537973224   0.216669851380153   0.256105043405235   1.0
