data_1
_audit_creation_method   'Generated by vasp2cif'
_cell_length_a    5.88266908854
_cell_length_b    5.9331744387
_cell_length_c    6.2118265195
_cell_angle_alpha    88.385922941
_cell_angle_beta    94.1271603166
_cell_angle_gamma    81.313330905
_symmetry_space_group_name_H-M    'P 1'
loop_
_atom_site_label
_atom_site_type_symbol
_atom_site_fract_x
_atom_site_fract_y
_atom_site_fract_z
_atom_site_occupancy
C1   C   0.757291263132736   0.289262908292500   0.635668912555154   1.0
H2   H   0.852800197759549   0.176686114824427   0.342434367183955   1.0
H3   H   0.002175052665116   0.467764485905647   0.526659975711041   1.0
H4   H   0.505787991179382   0.153902411228586   0.783155426583726   1.0
H5   H   0.622927073723872   0.362296965534810   0.925078261402916   1.0
H6   H   0.894567846255576   0.555571952035898   0.768755095874660   1.0
H7   H   0.661050636290433   0.025987624059113   0.462940369887328   1.0
N11   N   0.745601612042044   0.162450220167670   0.461286081979267   1.0
N12   N   0.896957051310586   0.447760816639843   0.645212985892094   1.0
N13   N   0.629119893633607   0.255630533809317   0.800305609617737   1.0
