data_1
_audit_creation_method   'Generated by vasp2cif'
_cell_length_a    9.10385860391
_cell_length_b    4.15415642811
_cell_length_c    6.31766488693
_cell_angle_alpha    76.2449577849
_cell_angle_beta    97.2213509423
_cell_angle_gamma    117.177849266
_symmetry_space_group_name_H-M    'P 1'
loop_
_atom_site_label
_atom_site_type_symbol
_atom_site_fract_x
_atom_site_fract_y
_atom_site_fract_z
_atom_site_occupancy
C1   C   0.466930775336429   0.196921188657747   0.529862307806951   1.0
H2   H   0.368059796150689   0.336020832739820   0.749767445831623   1.0
H3   H   0.580169668536776   0.559670128777221   0.737992569284607   1.0
H4   H   0.608123055062386   0.129672522777419   0.329051997249565   1.0
H5   H   0.718269890283580   0.441111883441067   0.497462614253621   1.0
H6   H   0.214094011828877   0.925154903815901   0.515350336263644   1.0
H7   H   0.314150801678224   0.822192603217559   0.343419352977527   1.0
N11   N   0.471588229844407   0.391813883767092   0.674570348106961   1.0
N12   N   0.321460884901605   0.949707142692972   0.465895749100163   1.0
N13   N   0.608105934297868   0.246594662831704   0.453138004063938   1.0
