data_1
_audit_creation_method   'Generated by vasp2cif'
_cell_length_a    5.64875134448
_cell_length_b    5.79638818083
_cell_length_c    5.63228751649
_cell_angle_alpha    97.6690232619
_cell_angle_beta    88.1275879996
_cell_angle_gamma    93.1767599962
_symmetry_space_group_name_H-M    'P 1'
loop_
_atom_site_label
_atom_site_type_symbol
_atom_site_fract_x
_atom_site_fract_y
_atom_site_fract_z
_atom_site_occupancy
H4   H   0.340555305626666   0.505805937685530   0.365109822797820   1.0
H5   H   0.642320700585572   0.536956243115526   0.357743429304193   1.0
H6   H   0.483288639500898   0.683026186856274   0.589848273673923   1.0
H7   H   0.365539744046693   0.245366781931366   0.593972126721106   1.0
N9   N   0.491951085988205   0.531352529801353   0.469245063659102   1.0
