data_1
_audit_creation_method   'Generated by vasp2cif'
_cell_length_a    5.88594376358
_cell_length_b    4.21343443949
_cell_length_c    7.31415734367
_cell_angle_alpha    106.334489603
_cell_angle_beta    85.8441145085
_cell_angle_gamma    91.8215787144
_symmetry_space_group_name_H-M    'P 1'
loop_
_atom_site_label
_atom_site_type_symbol
_atom_site_fract_x
_atom_site_fract_y
_atom_site_fract_z
_atom_site_occupancy
H4   H   0.508237450073423   0.932334139909862   0.375369951839204   1.0
H5   H   0.645296231267572   0.949493670007683   0.576449939684977   1.0
H6   H   0.368699885336809   0.073466085247894   0.598242213326266   1.0
H7   H   0.273289219351604   0.542286428650456   0.438298225396778   1.0
N9   N   0.489180301910253   0.909734331934878   0.514419931120045   1.0
