data_1
_audit_creation_method   'Generated by vasp2cif'
_cell_length_a    7.33752213636
_cell_length_b    4.22564300264
_cell_length_c    5.87921774791
_cell_angle_alpha    91.9645742459
_cell_angle_beta    94.1234158979
_cell_angle_gamma    72.5400142709
_symmetry_space_group_name_H-M    'P 1'
loop_
_atom_site_label
_atom_site_type_symbol
_atom_site_fract_x
_atom_site_fract_y
_atom_site_fract_z
_atom_site_occupancy
H4   H   0.436619677781643   0.398310861829103   0.602921459186618   1.0
H5   H   0.641265114375891   0.203862830261805   0.472471421412614   1.0
H6   H   0.656147751816384   0.316424144975130   0.753474734629542   1.0
H7   H   0.488861160345316   0.959533922180064   0.827422756950405   1.0
N9   N   0.574735958726187   0.233830167426106   0.625372416702525   1.0
