data_1
_audit_creation_method   'Generated by vasp2cif'
_cell_length_a    5.83095242308
_cell_length_b    4.12892389013
_cell_length_c    7.40206594151
_cell_angle_alpha    105.103025801
_cell_angle_beta    86.4612526875
_cell_angle_gamma    92.8968152027
_symmetry_space_group_name_H-M    'P 1'
loop_
_atom_site_label
_atom_site_type_symbol
_atom_site_fract_x
_atom_site_fract_y
_atom_site_fract_z
_atom_site_occupancy
H4   H   0.472854748389885   0.139560552048792   0.495660364856036   1.0
H5   H   0.478939574114222   0.993450744302237   0.687230940753871   1.0
H6   H   0.216917783309803   0.059123966958275   0.612201819879658   1.0
H7   H   0.348188062740718   0.643203148987169   0.332929165854082   1.0
N9   N   0.384999152768970   0.988671392810815   0.571426695635544   1.0
