data_1
_audit_creation_method   'Generated by vasp2cif'
_cell_length_a    7.49330380428
_cell_length_b    4.13744590407
_cell_length_c    5.95542014958
_cell_angle_alpha    81.8461485015
_cell_angle_beta    81.607500105
_cell_angle_gamma    73.578644389
_symmetry_space_group_name_H-M    'P 1'
loop_
_atom_site_label
_atom_site_type_symbol
_atom_site_fract_x
_atom_site_fract_y
_atom_site_fract_z
_atom_site_occupancy
H4   H   0.449075682306308   0.107662911345024   0.561176821998183   1.0
H5   H   0.613682986704833   0.266057898812837   0.638743038637697   1.0
H6   H   0.453738044350551   0.137297195121958   0.845279119199313   1.0
H7   H   0.698671368181702   0.700500097873194   0.854978984745518   1.0
N9   N   0.534328101840399   0.094453772051108   0.687819502374879   1.0
