data_1
_audit_creation_method   'Generated by vasp2cif'
_cell_length_a    6.07535925143
_cell_length_b    4.12727369698
_cell_length_c    7.36985490126
_cell_angle_alpha    103.826491469
_cell_angle_beta    96.3903064315
_cell_angle_gamma    83.4997946446
_symmetry_space_group_name_H-M    'P 1'
loop_
_atom_site_label
_atom_site_type_symbol
_atom_site_fract_x
_atom_site_fract_y
_atom_site_fract_z
_atom_site_occupancy
H4   H   0.220515086477661   0.078510151770850   0.535512523738674   1.0
H5   H   0.480354848406947   0.104639736174455   0.655409244170158   1.0
H6   H   0.293750790319827   0.890050009598937   0.720885623791787   1.0
H7   H   0.316206054110331   0.562842586198634   0.401219155442334   1.0
N9   N   0.348782531811217   0.956267271360360   0.606905136737474   1.0
