data_1
_audit_creation_method   'Generated by vasp2cif'
_cell_length_a    7.55130420135
_cell_length_b    4.10129867481
_cell_length_c    5.88887266639
_cell_angle_alpha    83.8319215613
_cell_angle_beta    94.3094329435
_cell_angle_gamma    74.0614008621
_symmetry_space_group_name_H-M    'P 1'
loop_
_atom_site_label
_atom_site_type_symbol
_atom_site_fract_x
_atom_site_fract_y
_atom_site_fract_z
_atom_site_occupancy
H4   H   0.605798640617245   0.494158464052212   0.320181779467127   1.0
H5   H   0.621545748953558   0.506816249839595   0.611592448116987   1.0
H6   H   0.366796457607691   0.351375097935055   0.629554519560500   1.0
H7   H   0.459461587683308   0.820814922202317   0.428180562880570   1.0
N9   N   0.532176395685781   0.563641745032541   0.459134722326702   1.0
