data_1
_audit_creation_method   'Generated by vasp2cif'
_cell_length_a    5.92532067917
_cell_length_b    5.96276919689
_cell_length_c    5.82874074651
_cell_angle_alpha    80.5194146654
_cell_angle_beta    83.3796551414
_cell_angle_gamma    85.4057591119
_symmetry_space_group_name_H-M    'P 1'
loop_
_atom_site_label
_atom_site_type_symbol
_atom_site_fract_x
_atom_site_fract_y
_atom_site_fract_z
_atom_site_occupancy
N5   N   0.098408349442806   0.740782006351296   0.856686229196249   1.0
N6   N   0.236162825799269   0.933630217118683   0.122631676142916   1.0
H7   H   0.229317788292406   0.619298481460177   0.863251064028155   1.0
H8   H   0.377856453916877   0.826776683921835   0.141000198536794   1.0
H9   H   0.975784029939469   0.732113689469188   0.750484172514895   1.0
H10   H   0.209788734025928   0.060723117654398   0.222132500103811   1.0
H11   H   0.936874673785283   0.026595866166666   0.973641292203347   1.0
C12   C   0.083625461812247   0.905436345710591   0.983800280818450   1.0
