data_1
_audit_creation_method   'Generated by vasp2cif'
_cell_length_a    6.56407804564
_cell_length_b    5.65288849241
_cell_length_c    5.65407138803
_cell_angle_alpha    94.9652667832
_cell_angle_beta    90.0236974462
_cell_angle_gamma    90.1237309847
_symmetry_space_group_name_H-M    'P 1'
loop_
_atom_site_label
_atom_site_type_symbol
_atom_site_fract_x
_atom_site_fract_y
_atom_site_fract_z
_atom_site_occupancy
N5   N   0.180450462194003   0.852651404483495   0.145734469291412   1.0
N6   N   0.827518297195994   0.840208422159883   0.162267154925459   1.0
H7   H   0.199070660691596   0.731946431891984   0.267129362121914   1.0
H8   H   0.823196676255336   0.718659858640258   0.284758464710997   1.0
H9   H   0.306520492583914   0.921511708142823   0.073411607647642   1.0
H10   H   0.693556078257586   0.901451230502040   0.102768990378600   1.0
H11   H   0.990369760787047   0.050071840644748   0.948508817796530   1.0
C12   C   0.998951273482824   0.920330986676390   0.079394766938698   1.0
