data_1
_audit_creation_method   'Generated by vasp2cif'
_cell_length_a    5.85285090413
_cell_length_b    6.1035753517
_cell_length_c    6.04736119014
_cell_angle_alpha    99.3414295164
_cell_angle_beta    98.1134964566
_cell_angle_gamma    77.6473403212
_symmetry_space_group_name_H-M    'P 1'
loop_
_atom_site_label
_atom_site_type_symbol
_atom_site_fract_x
_atom_site_fract_y
_atom_site_fract_z
_atom_site_occupancy
N5   N   0.904023891226649   0.708524715157312   0.975022656772573   1.0
N6   N   0.202217982534775   0.833340308674796   0.663681230830469   1.0
H7   H   0.105453543616300   0.791606794156974   0.775169031706750   1.0
H8   H   0.092729139826619   0.943466865608391   0.565407764241269   1.0
H9   H   0.838963522378968   0.564300190801564   0.971928696089764   1.0
H10   H   0.325353536057426   0.919693831336597   0.753809847688158   1.0
H11   H   0.860789775351629   0.051389786341527   0.096899350150006   1.0
C12   C   0.809113915405741   0.888745859459350   0.081906946094343   1.0
