data_1
_audit_creation_method   'Generated by vasp2cif'
_cell_length_a    6.39644448213
_cell_length_b    6.55841928177
_cell_length_c    6.36529028621
_cell_angle_alpha    91.2607072319
_cell_angle_beta    86.4546947943
_cell_angle_gamma    89.6524576132
_symmetry_space_group_name_H-M    'P 1'
loop_
_atom_site_label
_atom_site_type_symbol
_atom_site_fract_x
_atom_site_fract_y
_atom_site_fract_z
_atom_site_occupancy
C1   C   0.364006302676295   0.405783642817987   0.322990442376309   1.0
C2   C   0.632737068431560   0.568411960337855   0.535424297570430   1.0
C3   C   0.404668371077712   0.297781243909334   0.689487170091837   1.0
C4   C   0.256149256159759   0.639518316515023   0.618132674814966   1.0
H5   H   0.286580864933207   0.685176018122540   0.778802702058691   1.0
H6   H   0.099994511318123   0.575209116594763   0.612330539467095   1.0
H7   H   0.207096894762039   0.342418184568317   0.332846183314594   1.0
H8   H   0.661513568655700   0.625669011210803   0.692796787634300   1.0
H9   H   0.245855452242040   0.238752486922237   0.696316854925975   1.0
H10   H   0.446738054550984   0.351586415326601   0.844190007738121   1.0
H11   H   0.745084600999725   0.449159529470293   0.484516971405220   1.0
H12   H   0.273753206269696   0.768829128135089   0.514233014728489   1.0
H13   H   0.516827810790026   0.182510884045009   0.627553868751654   1.0
H14   H   0.371886693179888   0.536921144356256   0.220640214383302   1.0
H15   H   0.637036313525030   0.691864338166724   0.424192919242501   1.0
H16   H   0.478039329570876   0.290112797850440   0.267776503503420   1.0
N20   N   0.414737714721007   0.477287251865953   0.542178574819182   1.0
