data_1
_audit_creation_method   'Generated by vasp2cif'
_cell_length_a    6.89904639653
_cell_length_b    5.23984701648
_cell_length_c    7.62191217608
_cell_angle_alpha    89.1563164243
_cell_angle_beta    90.6919365064
_cell_angle_gamma    85.7767439211
_symmetry_space_group_name_H-M    'P 1'
loop_
_atom_site_label
_atom_site_type_symbol
_atom_site_fract_x
_atom_site_fract_y
_atom_site_fract_z
_atom_site_occupancy
C1   C   0.438470539339264   0.370381383360467   0.472237803990083   1.0
C2   C   0.563225374912939   0.732113445256942   0.634217804265234   1.0
C3   C   0.357458605806649   0.432465216443809   0.787207638099140   1.0
C4   C   0.211889534525085   0.733173705916428   0.559609302206070   1.0
H5   H   0.238241418966176   0.824564014227064   0.433849051218281   1.0
H6   H   0.181253719321830   0.874929055398546   0.660461373418450   1.0
H7   H   0.461796004154977   0.471490142134783   0.349248179613774   1.0
H8   H   0.588477431647263   0.823236673878668   0.508007294690906   1.0
H9   H   0.238490890347848   0.309879967738290   0.768958738850586   1.0
H10   H   0.319219601193545   0.577206060626793   0.884688921622605   1.0
H11   H   0.527017123697654   0.873090545814151   0.734207246648133   1.0
H12   H   0.090963307707625   0.611384501010470   0.547838733642706   1.0
H13   H   0.490551989712934   0.322078641054702   0.827675519679666   1.0
H14   H   0.570157043530543   0.256176074279466   0.511496677725503   1.0
H15   H   0.690174036928369   0.609316402316175   0.676003993629038   1.0
H16   H   0.314850516963084   0.254542229996218   0.458368651369632   1.0
N20   N   0.392656628596548   0.566729955274901   0.613424324431001   1.0
