data_1
_audit_creation_method   'Generated by vasp2cif'
_cell_length_a    5.82882754031
_cell_length_b    5.67830648184
_cell_length_c    5.74259758742
_cell_angle_alpha    89.3251848763
_cell_angle_beta    82.9295037744
_cell_angle_gamma    88.5454958015
_symmetry_space_group_name_H-M    'P 1'
loop_
_atom_site_label
_atom_site_type_symbol
_atom_site_fract_x
_atom_site_fract_y
_atom_site_fract_z
_atom_site_occupancy
H4   H   0.254981671046622   0.563104291111578   0.579432984445376   1.0
H5   H   0.474771221782547   0.657498703458231   0.397339280435610   1.0
H6   H   0.509332412315423   0.348421926562004   0.791823671681030   1.0
H7   H   0.730238583750712   0.445944203134957   0.609726118506224   1.0
H8   H   0.568849507312734   0.638579863877972   0.788303476870318   1.0
N10   N   0.415126988755397   0.514930303495717   0.496571627709265   1.0
N11   N   0.565098397740080   0.489584934891433   0.684816067656627   1.0
