data_1
_audit_creation_method   'Generated by vasp2cif'
_cell_length_a    7.85970160767
_cell_length_b    5.68826396768
_cell_length_c    5.69182261625
_cell_angle_alpha    89.0345470022
_cell_angle_beta    47.7486052103
_cell_angle_gamma    94.0431422638
_symmetry_space_group_name_H-M    'P 1'
loop_
_atom_site_label
_atom_site_type_symbol
_atom_site_fract_x
_atom_site_fract_y
_atom_site_fract_z
_atom_site_occupancy
H4   H   0.531963064643278   0.680293619971927   0.151197742222983   1.0
H5   H   0.407177028982289   0.633280277804346   0.008727176775558   1.0
H6   H   0.747861816048733   0.365246383063415   0.895065949880966   1.0
H7   H   0.622257925261778   0.313905755180365   0.749536800703055   1.0
H8   H   0.802273789529750   0.563160437668621   0.624559968154458   1.0
N10   N   0.470576911879768   0.550562828803741   0.093664328015073   1.0
N11   N   0.674900487097347   0.444206790969730   0.820614564773187   1.0
