data_1
_audit_creation_method   'Generated by vasp2cif'
_cell_length_a    3.97435130233
_cell_length_b    6.26899843166
_cell_length_c    7.78498838983
_cell_angle_alpha    82.7435841976
_cell_angle_beta    106.297096446
_cell_angle_gamma    107.506343642
_symmetry_space_group_name_H-M    'P 1'
loop_
_atom_site_label
_atom_site_type_symbol
_atom_site_fract_x
_atom_site_fract_y
_atom_site_fract_z
_atom_site_occupancy
H4   H   0.278344326392485   0.465747795143308   0.514327899634559   1.0
H5   H   0.296044906040144   0.695432737381566   0.382829889192045   1.0
H6   H   0.628309718154277   0.472204228868073   0.312275996789481   1.0
H7   H   0.230246152522661   0.264443665648294   0.270065541736472   1.0
H8   H   0.264199006390619   0.501370090904643   0.142091193965854   1.0
N10   N   0.181473821813746   0.525061425818045   0.386247892440878   1.0
N11   N   0.342715090081405   0.436122284501657   0.271371076619062   1.0
