data_1
_audit_creation_method   'Generated by vasp2cif'
_cell_length_a    7.61070582939
_cell_length_b    6.11710378539
_cell_length_c    4.11448321018
_cell_angle_alpha    99.938243182
_cell_angle_beta    77.7181490783
_cell_angle_gamma    98.4023630144
_symmetry_space_group_name_H-M    'P 1'
loop_
_atom_site_label
_atom_site_type_symbol
_atom_site_fract_x
_atom_site_fract_y
_atom_site_fract_z
_atom_site_occupancy
H4   H   0.484174156541613   0.499122431571031   0.140733542692658   1.0
H5   H   0.623129574958668   0.730064330254820   0.077399690582340   1.0
H6   H   0.790913976342182   0.409356370248183   0.937707454822082   1.0
H7   H   0.651271869014678   0.303094317450970   0.665023005371701   1.0
H8   H   0.793541255687721   0.538199678925537   0.612091321257736   1.0
N10   N   0.563013586080494   0.586090536042008   0.959390689193178   1.0
N11   N   0.708872524495419   0.449162759047695   0.788850105712939   1.0
