data_1
_audit_creation_method   'Generated by vasp2cif'
_cell_length_a    7.27230426244
_cell_length_b    6.0714031392
_cell_length_c    4.36102606735
_cell_angle_alpha    89.2856326689
_cell_angle_beta    72.4519206257
_cell_angle_gamma    93.3679283754
_symmetry_space_group_name_H-M    'P 1'
loop_
_atom_site_label
_atom_site_type_symbol
_atom_site_fract_x
_atom_site_fract_y
_atom_site_fract_z
_atom_site_occupancy
H4   H   0.543240483185762   0.506873726364752   0.901800775853772   1.0
H5   H   0.393618347970921   0.710687024086724   0.993404987181648   1.0
H6   H   0.221479119714495   0.358291607757486   0.147214401879182   1.0
H7   H   0.366438651452505   0.315488855695023   0.379483276800130   1.0
H8   H   0.210942817670755   0.517265396560028   0.457461740722565   1.0
N10   N   0.459459185960981   0.593638493700709   0.087274047728052   1.0
N11   N   0.305157029578197   0.435049585815904   0.275550831468259   1.0
