data_1
_audit_creation_method   'Generated by vasp2cif'
_cell_length_a    7.6762345433
_cell_length_b    3.99881508028
_cell_length_c    6.09299380363
_cell_angle_alpha    93.9909321647
_cell_angle_beta    91.7332601954
_cell_angle_gamma    73.1988368756
_symmetry_space_group_name_H-M    'P 1'
loop_
_atom_site_label
_atom_site_type_symbol
_atom_site_fract_x
_atom_site_fract_y
_atom_site_fract_z
_atom_site_occupancy
H4   H   0.578901533812576   0.445549033608906   0.721817354894711   1.0
H5   H   0.441048231293323   0.508781250878691   0.504739903048687   1.0
H6   H   0.815743414333937   0.501543858362908   0.518759638039164   1.0
H7   H   0.688792384713302   0.545920620968097   0.290126904061985   1.0
H8   H   0.638598276928256   0.867229477113845   0.495726606187944   1.0
N10   N   0.573159772535405   0.395767040608526   0.554604645009277   1.0
N11   N   0.683950861208032   0.595300139660623   0.459604505475767   1.0
