data_1
_audit_creation_method   'Generated by vasp2cif'
_cell_length_a    7.8524767385
_cell_length_b    3.97064907394
_cell_length_c    5.8899832212
_cell_angle_alpha    96.4852438878
_cell_angle_beta    93.1963110903
_cell_angle_gamma    76.4613252082
_symmetry_space_group_name_H-M    'P 1'
loop_
_atom_site_label
_atom_site_type_symbol
_atom_site_fract_x
_atom_site_fract_y
_atom_site_fract_z
_atom_site_occupancy
H4   H   0.470076871097038   0.691048001945680   0.441680320827717   1.0
H5   H   0.558817027913447   0.723803363429974   0.701293823741545   1.0
H6   H   0.657648708602388   0.153730185359300   0.489039876050752   1.0
H7   H   0.754118110884363   0.368414556901668   0.315346703165221   1.0
H8   H   0.814819609840530   0.363109678586196   0.592726474013896   1.0
N10   N   0.584202780895679   0.710154017633576   0.530969969154785   1.0
N11   N   0.709085425141716   0.372689645820332   0.478381876156816   1.0
