data_1
_audit_creation_method   'Generated by vasp2cif'
_cell_length_a    7.5454950105
_cell_length_b    5.98627864178
_cell_length_c    4.39923064736
_cell_angle_alpha    91.0928692477
_cell_angle_beta    105.187532918
_cell_angle_gamma    72.6115199022
_symmetry_space_group_name_H-M    'P 1'
loop_
_atom_site_label
_atom_site_type_symbol
_atom_site_fract_x
_atom_site_fract_y
_atom_site_fract_z
_atom_site_occupancy
H4   H   0.527757165009312   0.546902547494163   0.475505661965542   1.0
H5   H   0.455660061594649   0.633351999926482   0.789797641772843   1.0
H6   H   0.193901843282738   0.581310035447459   0.403526988289236   1.0
H7   H   0.333899804175587   0.304219736317982   0.366361894810346   1.0
H8   H   0.265222137796023   0.371171947155830   0.695522366837672   1.0
N10   N   0.488447164965081   0.489646371877015   0.659154852893288   1.0
N11   N   0.306883617042423   0.436891450270025   0.519552285142431   1.0
