data_1
_audit_creation_method   'Generated by vasp2cif'
_cell_length_a    7.92964941228
_cell_length_b    3.95271481904
_cell_length_c    5.81676617831
_cell_angle_alpha    90.647808141
_cell_angle_beta    90.8102737815
_cell_angle_gamma    77.1432963798
_symmetry_space_group_name_H-M    'P 1'
loop_
_atom_site_label
_atom_site_type_symbol
_atom_site_fract_x
_atom_site_fract_y
_atom_site_fract_z
_atom_site_occupancy
H4   H   0.571885454989342   0.460597623614362   0.663989341367007   1.0
H5   H   0.580764603453105   0.453310357447442   0.381381027617849   1.0
H6   H   0.287928557325841   0.776330444278862   0.647280389721708   1.0
H7   H   0.419625165479140   0.997373744573864   0.511994033363621   1.0
H8   H   0.296652903259961   0.768045896191808   0.358652862425679   1.0
N10   N   0.500548609052892   0.443792923349974   0.517071437634975   1.0
N11   N   0.368897122521311   0.773205492766621   0.508389289979078   1.0
