data_1
_audit_creation_method   'Generated by vasp2cif'
_cell_length_a    6.05960181616
_cell_length_b    4.00740613423
_cell_length_c    7.59803785113
_cell_angle_alpha    100.287599578
_cell_angle_beta    87.6215515234
_cell_angle_gamma    80.6518275747
_symmetry_space_group_name_H-M    'P 1'
loop_
_atom_site_label
_atom_site_type_symbol
_atom_site_fract_x
_atom_site_fract_y
_atom_site_fract_z
_atom_site_occupancy
H4   H   0.479889792194499   0.937494298898265   0.363472397320926   1.0
H5   H   0.282492007285370   0.051304723615580   0.530078667480048   1.0
H6   H   0.739389508764539   0.141739252055935   0.546703940955858   1.0
H7   H   0.519858551701219   0.467387569074226   0.554702214151142   1.0
H8   H   0.550071537108607   0.242251060565941   0.724682261343197   1.0
N10   N   0.449756370246050   0.953988312730949   0.499205278592527   1.0
N11   N   0.570778961846415   0.223375969264353   0.586414961970725   1.0
