data_1
_audit_creation_method   'Generated by vasp2cif'
_cell_length_a    9.72755092
_cell_length_b    3.97027779454
_cell_length_c    5.84691013063
_cell_angle_alpha    82.8072895201
_cell_angle_beta    85.3106621193
_cell_angle_gamma    52.1264778245
_symmetry_space_group_name_H-M    'P 1'
loop_
_atom_site_label
_atom_site_type_symbol
_atom_site_fract_x
_atom_site_fract_y
_atom_site_fract_z
_atom_site_occupancy
H4   H   0.338014764270504   0.204976607087758   0.471344048354162   1.0
H5   H   0.443763050823932   0.997067753423138   0.718175387747614   1.0
H6   H   0.695159018840116   0.859938961896006   0.527331978502254   1.0
H7   H   0.580414471345918   0.089656171373704   0.284404692374437   1.0
H8   H   0.526109540368893   0.395017239545489   0.501850845054364   1.0
N10   N   0.457981532943258   0.969894875134294   0.544053270125239   1.0
N11   N   0.570827133971711   0.091491768814393   0.461637218852907   1.0
