data_1
_audit_creation_method   'Generated by vasp2cif'
_cell_length_a    7.18251090915
_cell_length_b    6.33034259123
_cell_length_c    4.3165588567
_cell_angle_alpha    72.3948879299
_cell_angle_beta    106.788064708
_cell_angle_gamma    107.19877863
_symmetry_space_group_name_H-M    'P 1'
loop_
_atom_site_label
_atom_site_type_symbol
_atom_site_fract_x
_atom_site_fract_y
_atom_site_fract_z
_atom_site_occupancy
N5   N   0.436017876210712   0.442175224698055   0.771042536670635   1.0
H6   H   0.310736659415085   0.436149046186301   0.580050566900688   1.0
H7   H   0.418724347646183   0.290332310080387   0.948773835149147   1.0
H8   H   0.559671642514139   0.459090555223916   0.679780337422756   1.0
H9   H   0.456717103653901   0.577991235089975   0.874214131886383   1.0
