data_1
_audit_creation_method   'Generated by vasp2cif'
_cell_length_a    5.77075081823
_cell_length_b    5.76708546907
_cell_length_c    5.77898437262
_cell_angle_alpha    83.2697172842
_cell_angle_beta    83.3107100563
_cell_angle_gamma    83.419415102
_symmetry_space_group_name_H-M    'P 1'
loop_
_atom_site_label
_atom_site_type_symbol
_atom_site_fract_x
_atom_site_fract_y
_atom_site_fract_z
_atom_site_occupancy
N5   N   0.523936827574239   0.524562431629811   0.577605918113640   1.0
H6   H   0.368708237244554   0.625829404059814   0.542796472852345   1.0
H7   H   0.488053228194197   0.370716254490631   0.681428599774527   1.0
H8   H   0.622181907457922   0.485828097219716   0.422083771445258   1.0
H9   H   0.619879409087574   0.618759043142056   0.666461722029737   1.0
