data_1
_audit_creation_method   'Generated by vasp2cif'
_cell_length_a    7.15668131266
_cell_length_b    6.31653848761
_cell_length_c    4.31574480529
_cell_angle_alpha    107.737616099
_cell_angle_beta    106.863156646
_cell_angle_gamma    73.483889634
_symmetry_space_group_name_H-M    'P 1'
loop_
_atom_site_label
_atom_site_type_symbol
_atom_site_fract_x
_atom_site_fract_y
_atom_site_fract_z
_atom_site_occupancy
N5   N   0.561274197808586   0.477991777122483   0.184020602248118   1.0
H6   H   0.687139412442178   0.479016854106867   0.374997887135436   1.0
H7   H   0.581732747094080   0.325814908446915   0.006985667870367   1.0
H8   H   0.439218646408150   0.488799089426095   0.275948038065401   1.0
H9   H   0.535364072147942   0.614030573460610   0.078571731047397   1.0
