data_1
_audit_creation_method   'Generated by vasp2cif'
_cell_length_a    4.30551959621
_cell_length_b    6.319566035
_cell_length_c    7.18249162747
_cell_angle_alpha    73.2500055643
_cell_angle_beta    73.2386325107
_cell_angle_gamma    72.2965656827
_symmetry_space_group_name_H-M    'P 1'
loop_
_atom_site_label
_atom_site_type_symbol
_atom_site_fract_x
_atom_site_fract_y
_atom_site_fract_z
_atom_site_occupancy
N5   N   0.810074679141628   0.475936232531460   0.562631904205880   1.0
H6   H   0.619348142769987   0.469433722508327   0.688142770996912   1.0
H7   H   0.990964191165872   0.325039290902623   0.579118108235953   1.0
H8   H   0.718512328099102   0.491010452672548   0.439559022760548   1.0
H9   H   0.910518013191258   0.613153822824366   0.541887809180942   1.0
