data_1
_audit_creation_method   'Generated by vasp2cif'
_cell_length_a    6.4940572483
_cell_length_b    6.33475094673
_cell_length_c    6.19024207053
_cell_angle_alpha    92.9253686433
_cell_angle_beta    91.92226897
_cell_angle_gamma    104.518719701
_symmetry_space_group_name_H-M    'P 1'
loop_
_atom_site_label
_atom_site_type_symbol
_atom_site_fract_x
_atom_site_fract_y
_atom_site_fract_z
_atom_site_occupancy
C1   C   0.434921310645675   0.393480403424997   0.711113453658941   1.0
C2   C   0.366008174569158   0.604136535001519   0.397307426317997   1.0
C3   C   0.634868096556728   0.381630310692146   0.376744282071232   1.0
H4   H   0.362224949127155   0.497675889222057   0.811566839373574   1.0
H5   H   0.299499341189358   0.705826022913129   0.508097541679897   1.0
H6   H   0.755863593624814   0.331299529399012   0.473033666915258   1.0
H7   H   0.707246882640739   0.478665265900659   0.245983798048490   1.0
H8   H   0.444033185547096   0.698719621780428   0.267334821373432   1.0
H9   H   0.647112434956955   0.653653927142990   0.583352468545146   1.0
H10   H   0.512574156568755   0.238559877864809   0.312868216403094   1.0
H11   H   0.315954758775744   0.249376419002692   0.644932558414025   1.0
H12   H   0.241192826664433   0.464047041550696   0.331844987453525   1.0
H13   H   0.561807519118067   0.347513901459045   0.800710181525743   1.0
N17   N   0.530256395056402   0.519396183953002   0.521956658907977   1.0
