data_1
_audit_creation_method   'Generated by vasp2cif'
_cell_length_a    6.19238911917
_cell_length_b    6.37752097569
_cell_length_c    6.44754790653
_cell_angle_alpha    75.3111350188
_cell_angle_beta    87.1117767277
_cell_angle_gamma    91.8503311415
_symmetry_space_group_name_H-M    'P 1'
loop_
_atom_site_label
_atom_site_type_symbol
_atom_site_fract_x
_atom_site_fract_y
_atom_site_fract_z
_atom_site_occupancy
C1   C   0.750089424507401   0.496949628674770   0.567652615054229   1.0
C2   C   0.409952241691208   0.683920228824846   0.611931456846406   1.0
C3   C   0.438142206459190   0.455220062654995   0.348623285227319   1.0
H4   H   0.827691928675662   0.608478045932756   0.646140464185677   1.0
H5   H   0.351104321660031   0.543535035294411   0.739836462420179   1.0
H6   H   0.374547539351440   0.313463951094697   0.472652940913179   1.0
H7   H   0.551373158014115   0.406341691218898   0.236877572212073   1.0
H8   H   0.502292433551034   0.797230668512483   0.678538583526397   1.0
H9   H   0.616110381697190   0.739424087166007   0.338215197182365   1.0
H10   H   0.307068967881094   0.542215447066738   0.263597644971043   1.0
H11   H   0.688337946962271   0.349955117934236   0.684858933068874   1.0
H12   H   0.276173302250484   0.763974059924827   0.525561631877601   1.0
H13   H   0.859902585192877   0.458404496162267   0.447383419746160   1.0
N17   N   0.558242869852101   0.604933242968571   0.456653501047711   1.0
