data_1
_audit_creation_method   'Generated by vasp2cif'
_cell_length_a    6.34841007863
_cell_length_b    6.38689272142
_cell_length_c    6.35137629683
_cell_angle_alpha    97.0079764573
_cell_angle_beta    99.0731576964
_cell_angle_gamma    96.822705912
_symmetry_space_group_name_H-M    'P 1'
loop_
_atom_site_label
_atom_site_type_symbol
_atom_site_fract_x
_atom_site_fract_y
_atom_site_fract_z
_atom_site_occupancy
C1   C   0.592855497776057   0.669745269667985   0.381676348057127   1.0
C2   C   0.323350479749344   0.694465923572736   0.628291678164409   1.0
C3   C   0.557036616529594   0.406769767651134   0.638634371780640   1.0
H4   H   0.669501114419980   0.556655827838021   0.287938508025910   1.0
H5   H   0.240044371223099   0.790196809932397   0.521174360697231   1.0
H6   H   0.630121301381251   0.297034160868257   0.537166802274989   1.0
H7   H   0.441259246376312   0.320474499993956   0.717347518535057   1.0
H8   H   0.208831025705052   0.598298257176836   0.700693608667308   1.0
H9   H   0.325703357543517   0.449418273659966   0.382935366045317   1.0
H10   H   0.680647772908415   0.510253335703339   0.757249080731675   1.0
H11   H   0.500998955287272   0.761790056963257   0.276824748526437   1.0
H12   H   0.443219375473006   0.795361256702826   0.752854448585929   1.0
H13   H   0.712378769084715   0.775292602381469   0.502780274219830   1.0
N17   N   0.440033219677645   0.546830866849206   0.498104606233611   1.0
