data_1
_audit_creation_method   'Generated by vasp2cif'
_cell_length_a    6.48677672646
_cell_length_b    5.04121266331
_cell_length_c    7.84536846134
_cell_angle_alpha    90.5910292626
_cell_angle_beta    82.9746176211
_cell_angle_gamma    78.7659197112
_symmetry_space_group_name_H-M    'P 1'
loop_
_atom_site_label
_atom_site_type_symbol
_atom_site_fract_x
_atom_site_fract_y
_atom_site_fract_z
_atom_site_occupancy
C1   C   0.309672687937290   0.524902765647906   0.445838716102486   1.0
C2   C   0.589912652788127   0.774669346212684   0.511567697141911   1.0
C3   C   0.501544858585929   0.414315865636509   0.704172057290535   1.0
H4   H   0.238473943047846   0.696288500208927   0.374884758880316   1.0
H5   H   0.520493017342642   0.942646727678628   0.437585950716663   1.0
H6   H   0.374807288568566   0.311862720987413   0.753715207699309   1.0
H7   H   0.557978811755602   0.509980751388009   0.809458277476009   1.0
H8   H   0.663233149420759   0.843407053268539   0.617088857391438   1.0
H9   H   0.300892216093405   0.774376988806659   0.658518196397542   1.0
H10   H   0.631927213632230   0.275807155150957   0.630465481817846   1.0
H11   H   0.428517866387997   0.385400705323885   0.360466638137266   1.0
H12   H   0.705658130993768   0.630117605195039   0.427523164234039   1.0
H13   H   0.188119272319624   0.422627446951565   0.506773630238640   1.0
N17   N   0.416745572622599   0.631946552803028   0.585636457756365   1.0
