data_1
_audit_creation_method   'Generated by vasp2cif'
_cell_length_a    5.95781344825
_cell_length_b    4.68710984206
_cell_length_c    8.89601361583
_cell_angle_alpha    92.934959692
_cell_angle_beta    82.7389898747
_cell_angle_gamma    84.9019868935
_symmetry_space_group_name_H-M    'P 1'
loop_
_atom_site_label
_atom_site_type_symbol
_atom_site_fract_x
_atom_site_fract_y
_atom_site_fract_z
_atom_site_occupancy
C1   C   0.297764153217763   0.562856511595044   0.489279846403669   1.0
C2   C   0.637145908703282   0.836481650202735   0.487340796550910   1.0
C3   C   0.553318551584383   0.516319352176936   0.695145207205250   1.0
H4   H   0.213272937133191   0.725733990524880   0.426929879089784   1.0
H5   H   0.561569884980230   0.988450616570205   0.415524630090133   1.0
H6   H   0.419251065348490   0.413676371164385   0.760675476513541   1.0
H7   H   0.637823663964340   0.647621940587612   0.770734062936342   1.0
H8   H   0.744779207701789   0.936955136087107   0.560495773942463   1.0
H9   H   0.346701195701328   0.872016092617791   0.652011892161397   1.0
H10   H   0.676619244272594   0.358731317752657   0.629156616053891   1.0
H11   H   0.402566704362272   0.407116261255567   0.409033989083014   1.0
H12   H   0.735233818059520   0.661091862805208   0.415972913119155   1.0
H13   H   0.174212927991952   0.459543269724080   0.563705898564884   1.0
N17   N   0.450597286652737   0.709873950841043   0.585977785367774   1.0
