data_1
_audit_creation_method   'Generated by vasp2cif'
_cell_length_a    6.56148497118
_cell_length_b    4.88420230932
_cell_length_c    7.83046186267
_cell_angle_alpha    90.0881340586
_cell_angle_beta    95.2590347509
_cell_angle_gamma    75.4713698707
_symmetry_space_group_name_H-M    'P 1'
loop_
_atom_site_label
_atom_site_type_symbol
_atom_site_fract_x
_atom_site_fract_y
_atom_site_fract_z
_atom_site_occupancy
C1   C   0.527403952862308   0.875157242874025   0.400768633147209   1.0
C2   C   0.443431419366718   0.914910487765738   0.707391795282405   1.0
C3   C   0.270817066862179   0.627498924964691   0.507110866494557   1.0
H4   H   0.588334608274458   0.061952458722509   0.419005840804992   1.0
H5   H   0.315847529783369   0.931485080299609   0.788706454595939   1.0
H6   H   0.214835219344224   0.608741087771286   0.373646407919061   1.0
H7   H   0.142677688842937   0.651909052075524   0.589651105254759   1.0
H8   H   0.569993904448076   0.726510922410966   0.740765594851815   1.0
H9   H   0.233589772663315   0.055987838196806   0.488194008013096   1.0
H10   H   0.400084256851592   0.446235757410193   0.549024050961933   1.0
H11   H   0.653803534359810   0.684142026900297   0.430964593391352   1.0
H12   H   0.504650813076069   0.101924648207699   0.716873189952629   1.0
H13   H   0.455592508887008   0.871540854846849   0.270009192987828   1.0
N17   N   0.359466821069006   0.884563458773002   0.523401158990708   1.0
