data_1
_audit_creation_method   'Generated by vasp2cif'
_cell_length_a    5.98086963487
_cell_length_b    6.24461721952
_cell_length_c    6.14051699728
_cell_angle_alpha    93.2915102698
_cell_angle_beta    91.0540747585
_cell_angle_gamma    99.9925256386
_symmetry_space_group_name_H-M    'P 1'
loop_
_atom_site_label
_atom_site_type_symbol
_atom_site_fract_x
_atom_site_fract_y
_atom_site_fract_z
_atom_site_occupancy
H4   H   0.420729221071568   0.547065170433086   0.193577856134120   1.0
H5   H   0.819855794608486   0.525807093585151   0.460730124479248   1.0
H6   H   0.599373523460521   0.760236542243504   0.310556168794321   1.0
H7   H   0.426203153205293   0.354167190328170   0.741077583875182   1.0
H8   H   0.333859611751649   0.783650685730137   0.587022504628607   1.0
H9   H   0.183806155666595   0.519539792997072   0.491750310927600   1.0
H10   H   0.601138178795750   0.298139775538147   0.383768529970688   1.0
H11   H   0.610186878598320   0.608720748712244   0.792936843078088   1.0
C12   C   0.348750663143974   0.617474079022728   0.535356359068572   1.0
C13   C   0.638972266660382   0.462239860663224   0.459883948921920   1.0
C14   C   0.507928836409945   0.501291241343296   0.669009923166058   1.0
N16   N   0.504598606153401   0.610545802754793   0.337148290374344   1.0
