data_1
_audit_creation_method   'Generated by vasp2cif'
_cell_length_a    6.08705591846
_cell_length_b    6.05812716272
_cell_length_c    6.10469575334
_cell_angle_alpha    86.1115584671
_cell_angle_beta    82.0916857368
_cell_angle_gamma    93.8105916711
_symmetry_space_group_name_H-M    'P 1'
loop_
_atom_site_label
_atom_site_type_symbol
_atom_site_fract_x
_atom_site_fract_y
_atom_site_fract_z
_atom_site_occupancy
H4   H   0.364350962983806   0.816747116688020   0.706420982172432   1.0
H5   H   0.397386389478989   0.647184458458717   0.274991374684170   1.0
H6   H   0.572361363542484   0.885974948377154   0.497406088211370   1.0
H7   H   0.468082220924749   0.256710726422142   0.588352924386129   1.0
H8   H   0.792379930629579   0.637333473510068   0.662327539154525   1.0
H9   H   0.554247841302399   0.531332663469513   0.855047613832717   1.0
H10   H   0.205474387803825   0.540021414846308   0.513081650840583   1.0
H11   H   0.676260364014297   0.392994874314915   0.380623624172984   1.0
C12   C   0.618346159107901   0.577491161457331   0.681792053892238   1.0
C13   C   0.379220110051499   0.583473473361181   0.447346199051424   1.0
C14   C   0.544649908271090   0.416799758800792   0.514541162559539   1.0
N16   N   0.477614612037129   0.755992799601977   0.589832040089995   1.0
