data_1
_audit_creation_method   'Generated by vasp2cif'
_cell_length_a    8.33130855605
_cell_length_b    6.09558892688
_cell_length_c    4.71060216457
_cell_angle_alpha    89.5216978502
_cell_angle_beta    84.3131930866
_cell_angle_gamma    89.4720865176
_symmetry_space_group_name_H-M    'P 1'
loop_
_atom_site_label
_atom_site_type_symbol
_atom_site_fract_x
_atom_site_fract_y
_atom_site_fract_z
_atom_site_occupancy
H4   H   0.607365725513120   0.017088584666965   0.064878265803507   1.0
H5   H   0.324910834019839   0.294236557138049   0.995546633382062   1.0
H6   H   0.331111807855429   0.016833765327668   0.992403516413887   1.0
H7   H   0.377420524267187   0.017005176576944   0.499001373545440   1.0
H8   H   0.377508908941664   0.311611588221908   0.503626612406158   1.0
H9   H   0.675794507328057   0.301919245177331   0.535919702343371   1.0
H10   H   0.672769335395230   0.011254866717323   0.543997563791514   1.0
H11   H   0.601892949114280   0.312519196242349   0.055117067798740   1.0
C12   C   0.426785462505613   0.162091386354525   0.590842720780060   1.0
C13   C   0.571492562261831   0.162266229368484   0.950587470563370   1.0
C14   C   0.610403338145936   0.159181160030357   0.623556418176371   1.0
N16   N   0.388690690231080   0.158068371202312   0.916371662958802   1.0
