data_1
_audit_creation_method   'Generated by vasp2cif'
_cell_length_a    8.31071566627
_cell_length_b    5.93583169559
_cell_length_c    4.71831643196
_cell_angle_alpha    94.6591090924
_cell_angle_beta    85.3157002297
_cell_angle_gamma    86.0309122901
_symmetry_space_group_name_H-M    'P 1'
loop_
_atom_site_label
_atom_site_type_symbol
_atom_site_fract_x
_atom_site_fract_y
_atom_site_fract_z
_atom_site_occupancy
H4   H   0.405002562494289   0.996766956670641   0.940086313331470   1.0
H5   H   0.596448115574781   0.378640092447732   0.057299513369628   1.0
H6   H   0.663083340256016   0.104225165371254   0.052125438898393   1.0
H7   H   0.644595453649934   0.146721399509367   0.548855179825047   1.0
H8   H   0.508890616257361   0.396499868160788   0.549508183882111   1.0
H9   H   0.280172342404768   0.142392646144145   0.542334515300574   1.0
H10   H   0.419106290192310   0.902012322085639   0.436086410740572   1.0
H11   H   0.318771286003646   0.278695591773754   0.057293392621652   1.0
C12   C   0.539839951147982   0.222901506806181   0.458169368107392   1.0
C13   C   0.401397029535040   0.138201104937806   0.101645299380571   1.0
C14   C   0.392153219286492   0.082216499201500   0.415506946846712   1.0
N16   N   0.571643004336067   0.224653452630861   0.132762738094677   1.0
