data_1
_audit_creation_method   'Generated by vasp2cif'
_cell_length_a    6.05286990695
_cell_length_b    4.24558391787
_cell_length_c    8.65441732368
_cell_angle_alpha    86.4536883937
_cell_angle_beta    90.8803078317
_cell_angle_gamma    96.5416382847
_symmetry_space_group_name_H-M    'P 1'
loop_
_atom_site_label
_atom_site_type_symbol
_atom_site_fract_x
_atom_site_fract_y
_atom_site_fract_z
_atom_site_occupancy
H4   H   0.027716456840174   0.178153126054120   0.522045443046970   1.0
H5   H   0.301004168723765   0.273439121700903   0.326600105064891   1.0
H6   H   0.377781914819160   0.633544425264049   0.380635215925906   1.0
H7   H   0.575512962569761   0.063302146352122   0.483948910542971   1.0
H8   H   0.653642640926172   0.449059732459389   0.549687438960262   1.0
H9   H   0.388621488488688   0.349743528624309   0.764231463531281   1.0
H10   H   0.303397271965409   0.962853245785013   0.706620579217962   1.0
H11   H   0.109580276768838   0.565663315971918   0.586703883581954   1.0
C12   C   0.515127070909024   0.268032549293380   0.532463763985525   1.0
C13   C   0.167137093210449   0.344468430574409   0.556335047202495   1.0
C14   C   0.343856650442589   0.209532727526117   0.664945535126876   1.0
N16   N   0.338563652821662   0.402981373435203   0.423192787466178   1.0
