data_1
_audit_creation_method   'Generated by vasp2cif'
_cell_length_a    8.48983533702
_cell_length_b    4.27754854809
_cell_length_c    6.93769599818
_cell_angle_alpha    62.0953577674
_cell_angle_beta    91.1753529441
_cell_angle_gamma    93.7960698182
_symmetry_space_group_name_H-M    'P 1'
loop_
_atom_site_label
_atom_site_type_symbol
_atom_site_fract_x
_atom_site_fract_y
_atom_site_fract_z
_atom_site_occupancy
H4   H   0.567528614154367   0.418291521925111   0.813244211560373   1.0
H5   H   0.348770067511882   0.676844189701039   0.573874166761466   1.0
H6   H   0.322260905878984   0.932181240664552   0.687465089139393   1.0
H7   H   0.531810956627585   0.103052034264750   0.316194390585423   1.0
H8   H   0.485835114379074   0.393386826685846   0.421726781551887   1.0
H9   H   0.711798721284120   0.163727146089329   0.686446931716315   1.0
H10   H   0.757346784421039   0.899744284955129   0.563839032425548   1.0
H11   H   0.523831013708667   0.680904221232668   0.940620678000939   1.0
C12   C   0.524246313362783   0.131647173536852   0.463238715394902   1.0
C13   C   0.547635167894899   0.683614898132994   0.786518827767428   1.0
C14   C   0.661647377286494   0.987320607985283   0.625049288667348   1.0
N16   N   0.408227599285820   0.836994393001996   0.629116738106612   1.0
