data_1
_audit_creation_method   'Generated by vasp2cif'
_cell_length_a    6.92666411774
_cell_length_b    4.27693731861
_cell_length_c    9.25074609137
_cell_angle_alpha    113.573429701
_cell_angle_beta    101.337978878
_cell_angle_gamma    62.162479979
_symmetry_space_group_name_H-M    'P 1'
loop_
_atom_site_label
_atom_site_type_symbol
_atom_site_fract_x
_atom_site_fract_y
_atom_site_fract_z
_atom_site_occupancy
H4   H   0.809334616004116   0.854179898965987   0.424386629210122   1.0
H5   H   0.568536641434071   0.329302338167944   0.642388540052840   1.0
H6   H   0.681859384646353   0.612237162486515   0.669596673768800   1.0
H7   H   0.311390219836352   0.572085849757173   0.459014588213732   1.0
H8   H   0.416496592051444   0.909423943206866   0.505663510556462   1.0
H9   H   0.682613548303174   0.456289988507903   0.280541912757816   1.0
H10   H   0.560388831276992   0.145715055508498   0.234340575681048   1.0
H11   H   0.936371420245651   0.161559542144547   0.468780649177467   1.0
C12   C   0.458429194771450   0.609297354664605   0.467148855216437   1.0
C13   C   0.782311755076071   0.139542751506057   0.444442025108976   1.0
C14   C   0.621093169674972   0.329136747472080   0.330290683348622   1.0
N16   N   0.624030008209937   0.430828696525919   0.583354393972147   1.0
