data_1
_audit_creation_method   'Generated by vasp2cif'
_cell_length_a    6.2278823436
_cell_length_b    4.30278684763
_cell_length_c    8.95364744483
_cell_angle_alpha    106.484608653
_cell_angle_beta    87.6138700738
_cell_angle_gamma    100.108130569
_symmetry_space_group_name_H-M    'P 1'
loop_
_atom_site_label
_atom_site_type_symbol
_atom_site_fract_x
_atom_site_fract_y
_atom_site_fract_z
_atom_site_occupancy
H4   H   0.251029377741979   0.547283966733758   0.546785044383036   1.0
H5   H   0.476856727076502   0.706487326872548   0.346068654100947   1.0
H6   H   0.334696827559981   0.998083689268888   0.349490855699031   1.0
H7   H   0.690836866270182   0.041818499521554   0.569498734705405   1.0
H8   H   0.588532591032724   0.376703020800363   0.536431448741858   1.0
H9   H   0.270593607809566   0.282302752400817   0.715958625890813   1.0
H10   H   0.412543898872400   0.009904836935625   0.771617850523612   1.0
H11   H   0.074481127411033   0.801288332117423   0.511564490629802   1.0
C12   C   0.543925841720501   0.135690756185781   0.555943787372506   1.0
C13   C   0.239917742127645   0.792510222627328   0.541220390950286   1.0
C14   C   0.360750080120170   0.078963965247283   0.672743832508701   1.0
N16   N   0.403896144351606   0.889272978243739   0.420347650572999   1.0
