data_1
_audit_creation_method   'Generated by vasp2cif'
_cell_length_a    8.3370726721
_cell_length_b    4.73137375875
_cell_length_c    6.27377201134
_cell_angle_alpha    73.1379929653
_cell_angle_beta    90.1409944747
_cell_angle_gamma    99.8489323502
_symmetry_space_group_name_H-M    'P 1'
loop_
_atom_site_label
_atom_site_type_symbol
_atom_site_fract_x
_atom_site_fract_y
_atom_site_fract_z
_atom_site_occupancy
H4   H   0.598589334781579   0.592397621387846   0.656306693677124   1.0
H5   H   0.349987701622169   0.732301165062630   0.485299955073422   1.0
H6   H   0.318110764249056   0.895283193177598   0.680761841892576   1.0
H7   H   0.573551454697785   0.124910081855163   0.314293959024468   1.0
H8   H   0.471588206387324   0.339984450830606   0.442721992384065   1.0
H9   H   0.631057058065778   0.167600181234377   0.794610174127627   1.0
H10   H   0.771418816858422   0.085068018431755   0.617916718376712   1.0
H11   H   0.504398606781685   0.626001951555956   0.904090489452187   1.0
C12   C   0.527911555896885   0.142259336312463   0.471418211486665   1.0
C13   C   0.545392253933699   0.736835676005391   0.731053825122927   1.0
C14   C   0.643459135986099   0.059820433337592   0.665422095672191   1.0
N16   N   0.406863076843948   0.852737110281453   0.585710412839447   1.0
