data_1
_audit_creation_method   'Generated by vasp2cif'
_cell_length_a    5.96127249884
_cell_length_b    4.17839640205
_cell_length_c    8.89358042649
_cell_angle_alpha    87.1694437728
_cell_angle_beta    89.2121464957
_cell_angle_gamma    90.5999381231
_symmetry_space_group_name_H-M    'P 1'
loop_
_atom_site_label
_atom_site_type_symbol
_atom_site_fract_x
_atom_site_fract_y
_atom_site_fract_z
_atom_site_occupancy
H4   H   0.217901737780896   0.968193498949566   0.515063169025293   1.0
H5   H   0.444749238050860   0.244286362154200   0.320938208679102   1.0
H6   H   0.325285792163727   0.583086451361713   0.358909963240745   1.0
H7   H   0.714939868154321   0.283339779878944   0.513493904151531   1.0
H8   H   0.627323061333483   0.685628984151329   0.531198412656023   1.0
H9   H   0.341246276321907   0.499550851057962   0.727349540780244   1.0
H10   H   0.463246067865571   0.114737669068840   0.728295171272014   1.0
H11   H   0.075820562159235   0.335908936733594   0.531624830718817   1.0
C12   C   0.572036954683065   0.437224280996501   0.532155729300770   1.0
C13   C   0.238705337689109   0.221787533783154   0.532841344609985   1.0
C14   C   0.404056417066938   0.313675572121173   0.656505649623310   1.0
N16   N   0.395569148772835   0.381116062149512   0.409673898728621   1.0
