data_1
_audit_creation_method   'Generated by vasp2cif'
_cell_length_a    4.32251439049
_cell_length_b    5.92171755772
_cell_length_c    8.76477234333
_cell_angle_alpha    93.0197661232
_cell_angle_beta    90.4535984852
_cell_angle_gamma    95.5712975156
_symmetry_space_group_name_H-M    'P 1'
loop_
_atom_site_label
_atom_site_type_symbol
_atom_site_fract_x
_atom_site_fract_y
_atom_site_fract_z
_atom_site_occupancy
H4   H   0.887403366311950   0.970938160774665   0.189643547626737   1.0
H5   H   0.978841385907245   0.832064074124460   0.498617257318763   1.0
H6   H   0.648915404474081   0.791649829807483   0.396536407804277   1.0
H7   H   0.473559343903410   0.109201799388416   0.539603200988502   1.0
H8   H   0.860771203111867   0.186954301613220   0.604559764041362   1.0
H9   H   0.960352197055734   0.413178412021225   0.379161808078884   1.0
H10   H   0.610801179970665   0.293577681172778   0.287105660005246   1.0
H11   H   0.216795349753490   0.066166970051640   0.306379573139559   1.0
C12   C   0.715057847180780   0.132992291733892   0.505231537299906   1.0
C13   C   0.965090306520260   0.049678289484845   0.299216706482774   1.0
C14   C   0.804885806494553   0.258406982087010   0.359217738734152   1.0
N16   N   0.827363879954270   0.911335868642531   0.432060261219867   1.0
