data_1
_audit_creation_method   'Generated by vasp2cif'
_cell_length_a    7.8353102849
_cell_length_b    6.40227074606
_cell_length_c    4.70652758094
_cell_angle_alpha    85.7359873538
_cell_angle_beta    86.1166653696
_cell_angle_gamma    84.0456138824
_symmetry_space_group_name_H-M    'P 1'
loop_
_atom_site_label
_atom_site_type_symbol
_atom_site_fract_x
_atom_site_fract_y
_atom_site_fract_z
_atom_site_occupancy
H4   H   0.438318102320871   0.864391483301887   0.929141166538116   1.0
H5   H   0.407946914892364   0.325092838608342   0.977592994541297   1.0
H6   H   0.593893673501690   0.161562073934064   0.959460557527947   1.0
H7   H   0.565031227378746   0.058272077500128   0.445851441188353   1.0
H8   H   0.404551191041463   0.279960222067061   0.472291802298002   1.0
H9   H   0.175902278270854   0.059572488125440   0.377799767584342   1.0
H10   H   0.324052548280136   0.830518770727899   0.435650369801849   1.0
H11   H   0.253244661761123   0.051299642281087   0.863563266997552   1.0
C12   C   0.444853194110678   0.135380901488780   0.367972729513021   1.0
C13   C   0.356050584086006   0.999547984860087   0.003779123107357   1.0
C14   C   0.305636050573156   0.986681725277272   0.327291443680551   1.0
N16   N   0.467627233019655   0.179692384241868   0.043604104825128   1.0
