data_1
_audit_creation_method   'Generated by vasp2cif'
_cell_length_a    8.03722132918
_cell_length_b    6.23270796051
_cell_length_c    4.76997198382
_cell_angle_alpha    85.8431924563
_cell_angle_beta    88.9439962917
_cell_angle_gamma    79.6114054595
_symmetry_space_group_name_H-M    'P 1'
loop_
_atom_site_label
_atom_site_type_symbol
_atom_site_fract_x
_atom_site_fract_y
_atom_site_fract_z
_atom_site_occupancy
H4   H   0.330374350139024   0.106684669755332   0.708428029949573   1.0
H5   H   0.531314424511486   0.433158141246849   0.815962112569053   1.0
H6   H   0.607897543890616   0.163110703198889   0.820503321979558   1.0
H7   H   0.605428696512455   0.151339699760349   0.311443606474143   1.0
H8   H   0.461777866004091   0.411890980701479   0.295776207094711   1.0
H9   H   0.224409956652544   0.198658546596391   0.295616338212554   1.0
H10   H   0.368861152898681   0.961849355640886   0.203360947381078   1.0
H11   H   0.245624669333914   0.376855157930358   0.813197674058593   1.0
C12   C   0.492678632562466   0.250077505597687   0.214408606248910   1.0
C13   C   0.333417081419192   0.224939150310277   0.862927418184626   1.0
C14   C   0.337055374827031   0.139678610046367   0.174715009144222   1.0
N16   N   0.512273693392174   0.279563097275364   0.893750555683319   1.0
