data_1
_audit_creation_method   'Generated by vasp2cif'
_cell_length_a    5.95630653116
_cell_length_b    6.632160385
_cell_length_c    5.95521849127
_cell_angle_alpha    95.8109486124
_cell_angle_beta    80.1326202991
_cell_angle_gamma    85.417994773
_symmetry_space_group_name_H-M    'P 1'
loop_
_atom_site_label
_atom_site_type_symbol
_atom_site_fract_x
_atom_site_fract_y
_atom_site_fract_z
_atom_site_occupancy
H4   H   0.412390098086436   0.050313777146643   0.298256426549014   1.0
H5   H   0.659383372547803   0.992266751189669   0.600258738842781   1.0
H6   H   0.764732429047987   0.574391855588539   0.387819447469424   1.0
H7   H   0.456734679671882   0.395348223951245   0.145715537704033   1.0
H8   H   0.865589919007326   0.309644889933495   0.651963035257762   1.0
C9   C   0.544389805187210   0.342501924025109   0.275062665756481   1.0
C10   C   0.646626560347863   0.123870920012973   0.509519800798320   1.0
C11   C   0.694192797071834   0.430648341532379   0.394880787305176   1.0
N13   N   0.517635168068220   0.152959642114847   0.349660885788005   1.0
N14   N   0.755295302417010   0.291734815492633   0.539126009674031   1.0
