data_1
_audit_creation_method   'Generated by vasp2cif'
_cell_length_a    6.41153770254
_cell_length_b    5.99925054516
_cell_length_c    6.17096583565
_cell_angle_alpha    79.3260679363
_cell_angle_beta    85.4184579109
_cell_angle_gamma    96.474045009
_symmetry_space_group_name_H-M    'P 1'
loop_
_atom_site_label
_atom_site_type_symbol
_atom_site_fract_x
_atom_site_fract_y
_atom_site_fract_z
_atom_site_occupancy
H4   H   0.605216273984240   0.359032709975516   0.844612788605453   1.0
H5   H   0.672911617272128   0.061364885600945   0.608915301415294   1.0
H6   H   0.081713905776752   0.279171743975084   0.475147362378877   1.0
H7   H   0.254779712718737   0.515126111275109   0.781028984865024   1.0
H8   H   0.355259318789947   0.017720846332772   0.390721014167745   1.0
C9   C   0.311283224651682   0.386558855038956   0.700310001182025   1.0
C10   C   0.538016890253211   0.152669466786406   0.614592875106311   1.0
C11   C   0.226182144005406   0.269937187972673   0.551352700404387   1.0
N13   N   0.504277248062941   0.310427713358060   0.736565095734804   1.0
N14   N   0.370338214982155   0.125930195391440   0.500371214016482   1.0
