data_1
_audit_creation_method   'Generated by vasp2cif'
_cell_length_a    6.26908792814
_cell_length_b    6.06341152191
_cell_length_c    6.1273757492
_cell_angle_alpha    98.2927443411
_cell_angle_beta    97.3351468328
_cell_angle_gamma    94.4044988052
_symmetry_space_group_name_H-M    'P 1'
loop_
_atom_site_label
_atom_site_type_symbol
_atom_site_fract_x
_atom_site_fract_y
_atom_site_fract_z
_atom_site_occupancy
H4   H   0.157496120355375   0.500220627234867   0.566599466359250   1.0
H5   H   0.329338552909547   0.177121210617329   0.721840616680780   1.0
H6   H   0.671423857848005   0.343880088215606   0.204018337983889   1.0
H7   H   0.349006136080313   0.627632420222689   0.253846822193452   1.0
H8   H   0.637018223532486   0.085986024165201   0.495025223030090   1.0
C9   C   0.392223289124907   0.491325932730241   0.338890898526373   1.0
C10   C   0.374315700469708   0.256739745503118   0.586715226960713   1.0
C11   C   0.551438207714369   0.352032825846742   0.314941017734682   1.0
N13   N   0.283795175498000   0.427365839171387   0.506929079885104   1.0
N14   N   0.536069587305242   0.207246575142804   0.470115689730377   1.0
