data_1
_audit_creation_method   'Generated by vasp2cif'
_cell_length_a    5.92558788724
_cell_length_b    4.09733359913
_cell_length_c    9.33478269796
_cell_angle_alpha    88.389437535
_cell_angle_beta    88.3227650004
_cell_angle_gamma    81.482996087
_symmetry_space_group_name_H-M    'P 1'
loop_
_atom_site_label
_atom_site_type_symbol
_atom_site_fract_x
_atom_site_fract_y
_atom_site_fract_z
_atom_site_occupancy
H4   H   0.539909411257725   0.534887108400589   0.301945570942849   1.0
H5   H   0.208672083370082   0.265657555963614   0.668048211877064   1.0
H6   H   0.526520706366604   0.562573299595542   0.757156684753589   1.0
H7   H   0.757708625655702   0.739862205457605   0.509145928363424   1.0
H8   H   0.210353711941487   0.246204241848091   0.393335476255103   1.0
C9   C   0.499565946898656   0.525113947075326   0.645705324490741   1.0
C10   C   0.612666734641422   0.611692002203725   0.524090318652178   1.0
C11   C   0.325640984930061   0.356816118732859   0.457846036146215   1.0
N13   N   0.322473561649183   0.367283790143397   0.601693539510705   1.0
N14   N   0.501040345650395   0.505127582151005   0.408947106420023   1.0
