data_1
_audit_creation_method   'Generated by vasp2cif'
_cell_length_a    9.93211379352
_cell_length_b    4.12586807288
_cell_length_c    5.92044817519
_cell_angle_alpha    82.5391001559
_cell_angle_beta    87.3850409706
_cell_angle_gamma    68.7367733898
_symmetry_space_group_name_H-M    'P 1'
loop_
_atom_site_label
_atom_site_type_symbol
_atom_site_fract_x
_atom_site_fract_y
_atom_site_fract_z
_atom_site_occupancy
H4   H   0.721374811369735   0.725771995241743   0.593448941365203   1.0
H5   H   0.362721817857555   0.856463166765323   0.224368738035253   1.0
H6   H   0.268248086520138   0.272657862954297   0.528310105804664   1.0
H7   H   0.510564092207112   0.176368115890519   0.786691600999049   1.0
H8   H   0.636525348087922   0.522494668860162   0.257599835342212   1.0
C9   C   0.379757518375577   0.107225819800554   0.513954398779909   1.0
C10   C   0.498501686476679   0.058875488865475   0.640845407970367   1.0
C11   C   0.570142629296114   0.712328305472333   0.364548955176367   1.0
N13   N   0.427138004953321   0.889621931974006   0.343490186284541   1.0
N14   N   0.615238927537462   0.812757466133242   0.544556698348245   1.0
