data_1
_audit_creation_method   'Generated by vasp2cif'
_cell_length_a    8.99685051836
_cell_length_b    4.0873498931
_cell_length_c    6.10577434263
_cell_angle_alpha    99.5856085096
_cell_angle_beta    93.7076891047
_cell_angle_gamma    89.6901869484
_symmetry_space_group_name_H-M    'P 1'
loop_
_atom_site_label
_atom_site_type_symbol
_atom_site_fract_x
_atom_site_fract_y
_atom_site_fract_z
_atom_site_occupancy
H4   H   0.293738385985222   0.834979629548663   0.366351873355967   1.0
H5   H   0.553623395598308   0.358274109643588   0.790078991704284   1.0
H6   H   0.731969719239039   0.522544247084276   0.521254475021891   1.0
H7   H   0.557850030714768   0.853792351740964   0.235305068231902   1.0
H8   H   0.283048331913861   0.533396693996984   0.699915356946001   1.0
C9   C   0.614769364847206   0.576694709907059   0.514049311257303   1.0
C10   C   0.529184829760865   0.738572277345916   0.373308325354557   1.0
C11   C   0.380161124188959   0.580211016824677   0.616188143799725   1.0
N13   N   0.519652156281566   0.481539268475345   0.663090167228788   1.0
N14   N   0.384759601157206   0.739301294330623   0.441655447501333   1.0
