data_1
_audit_creation_method   'Generated by vasp2cif'
_cell_length_a    6.1323599348
_cell_length_b    4.08340979605
_cell_length_c    9.66858996384
_cell_angle_alpha    112.397474359
_cell_angle_beta    95.5481722954
_cell_angle_gamma    80.7584187047
_symmetry_space_group_name_H-M    'P 1'
loop_
_atom_site_label
_atom_site_type_symbol
_atom_site_fract_x
_atom_site_fract_y
_atom_site_fract_z
_atom_site_occupancy
H4   H   0.568458615600925   0.190577513757695   0.267838879294558   1.0
H5   H   0.256209804565224   0.404490202437465   0.653259705370225   1.0
H6   H   0.565731362310601   0.800802929037431   0.735033763026379   1.0
H7   H   0.785017738382734   0.648421307949548   0.473572511325884   1.0
H8   H   0.250731263511675   0.037797589587498   0.372233798472848   1.0
C9   C   0.536670504771770   0.623968367874298   0.621642898204911   1.0
C10   C   0.643651924963002   0.549475831854032   0.493425318139351   1.0
C11   C   0.364296863624069   0.223768079928440   0.434421972312101   1.0
N13   N   0.364547666649656   0.418092258287288   0.581976447132661   1.0
N14   N   0.533071746705993   0.301034829375460   0.378709496706257   1.0
