data_1
_audit_creation_method   'Generated by vasp2cif'
_cell_length_a    6.28871532675
_cell_length_b    6.27220460613
_cell_length_c    6.69008554468
_cell_angle_alpha    82.0375384427
_cell_angle_beta    87.1026670484
_cell_angle_gamma    92.7660928195
_symmetry_space_group_name_H-M    'P 1'
loop_
_atom_site_label
_atom_site_type_symbol
_atom_site_fract_x
_atom_site_fract_y
_atom_site_fract_z
_atom_site_occupancy
C1   C   0.467924294150492   0.579413890484027   0.339372359746164   1.0
C2   C   0.544068904925695   0.414065601609259   0.209952779475358   1.0
H3   H   0.714819839457896   0.439754833655329   0.168567143433982   1.0
H4   H   0.458292382481680   0.429658524173455   0.071252222051569   1.0
H5   H   0.573192195123049   0.412275635597254   0.612976485812517   1.0
H6   H   0.541747687563891   0.675312157389655   0.623357512318968   1.0
H7   H   0.512316026812535   0.249622502455551   0.288365639478485   1.0
H8   H   0.495715661427390   0.744637054954076   0.263034199912553   1.0
H9   H   0.299742308145525   0.552044552052536   0.389094396439788   1.0
H10   H   0.752211475531396   0.600666693475596   0.495701371209016   1.0
N14   N   0.591378119552679   0.565492068382561   0.530496120055446   1.0
