data_1
_audit_creation_method   'Generated by vasp2cif'
_cell_length_a    6.5417788957
_cell_length_b    6.17606358681
_cell_length_c    6.5831398261
_cell_angle_alpha    85.3180905542
_cell_angle_beta    79.2812004671
_cell_angle_gamma    85.7304928258
_symmetry_space_group_name_H-M    'P 1'
loop_
_atom_site_label
_atom_site_type_symbol
_atom_site_fract_x
_atom_site_fract_y
_atom_site_fract_z
_atom_site_occupancy
C1   C   0.571985233560724   0.775598264385067   0.305204604032639   1.0
C2   C   0.534065222852803   0.596012741598585   0.174195398593646   1.0
H3   H   0.680444421376095   0.529073939998014   0.086628291716629   1.0
H4   H   0.436027348499444   0.663073783975165   0.063801717385580   1.0
H5   H   0.639113984946334   0.554328826062374   0.554684575544584   1.0
H6   H   0.721116962987551   0.803534050227618   0.561603558571285   1.0
H7   H   0.453197862431978   0.463688012782107   0.269806790460784   1.0
H8   H   0.656639340818273   0.907037784605649   0.213648531812772   1.0
H9   H   0.427675580681139   0.844139769874616   0.394143266473712   1.0
H10   H   0.852021078502062   0.630605705958516   0.393650407672133   1.0
N14   N   0.705139538505748   0.685366512381357   0.463800444771621   1.0
