data_1
_audit_creation_method   'Generated by vasp2cif'
_cell_length_a    6.80147814936
_cell_length_b    4.42316617103
_cell_length_c    8.89102171959
_cell_angle_alpha    93.9353267144
_cell_angle_beta    91.2682296291
_cell_angle_gamma    103.632626837
_symmetry_space_group_name_H-M    'P 1'
loop_
_atom_site_label
_atom_site_type_symbol
_atom_site_fract_x
_atom_site_fract_y
_atom_site_fract_z
_atom_site_occupancy
C1   C   0.571852336777786   0.703972532314275   0.418924105326885   1.0
C2   C   0.567796764227250   0.498265564422102   0.549642078181557   1.0
H3   H   0.710480369376399   0.426789636795193   0.561755392262970   1.0
H4   H   0.547370705647910   0.629045895453240   0.654438760462212   1.0
H5   H   0.730727411079821   0.447598227095386   0.272555651620281   1.0
H6   H   0.599299589816650   0.658983152104192   0.179646243899330   1.0
H7   H   0.429998674552017   0.776754430128349   0.404732790044053   1.0
H8   H   0.441547974206743   0.291806689460862   0.535129057539825   1.0
H9   H   0.699299567198784   0.907882793167903   0.430683651255221   1.0
H10   H   0.476167872096474   0.334504501393011   0.249567085612808   1.0
N14   N   0.597736379695902   0.524357474075215   0.271382604389854   1.0
