data_1
_audit_creation_method   'Generated by vasp2cif'
_cell_length_a    8.79611564229
_cell_length_b    4.48140332962
_cell_length_c    6.62992007674
_cell_angle_alpha    81.1666921082
_cell_angle_beta    91.978943891
_cell_angle_gamma    87.5139107294
_symmetry_space_group_name_H-M    'P 1'
loop_
_atom_site_label
_atom_site_type_symbol
_atom_site_fract_x
_atom_site_fract_y
_atom_site_fract_z
_atom_site_occupancy
C1   C   0.467195702964531   0.542827436951541   0.424239816437911   1.0
C2   C   0.416130996607308   0.701378721185179   0.599939251287914   1.0
H3   H   0.392325673992794   0.538409597922815   0.734178358788405   1.0
H4   H   0.503457342799948   0.846433238027416   0.646981838073373   1.0
H5   H   0.629415898027368   0.247733474988394   0.614920223634464   1.0
H6   H   0.708230372173325   0.541036587423029   0.485079737975255   1.0
H7   H   0.389856525230812   0.368931248247684   0.393992864830992   1.0
H8   H   0.311811208687146   0.839233206615411   0.552751084823221   1.0
H9   H   0.477606378926637   0.699111068080811   0.282496379171057   1.0
H10   H   0.656130218202136   0.262720765713738   0.361305026163578   1.0
N14   N   0.624167838541602   0.386748100663930   0.474459102874313   1.0
