data_1
_audit_creation_method   'Generated by vasp2cif'
_cell_length_a    6.61352652548
_cell_length_b    4.49629049193
_cell_length_c    9.74425120099
_cell_angle_alpha    64.7459516912
_cell_angle_beta    95.9307715255
_cell_angle_gamma    99.0514101527
_symmetry_space_group_name_H-M    'P 1'
loop_
_atom_site_label
_atom_site_type_symbol
_atom_site_fract_x
_atom_site_fract_y
_atom_site_fract_z
_atom_site_occupancy
C1   C   0.340874153952441   0.504009574342945   0.591980414708608   1.0
C2   C   0.511057274236939   0.390913444081373   0.538515763182780   1.0
H3   H   0.462912116649562   0.378209421323185   0.430304262190421   1.0
H4   H   0.652075059959192   0.563826545949539   0.521612099477142   1.0
H5   H   0.400699789376827   0.243125890251755   0.831556412634675   1.0
H6   H   0.283512357292335   0.576861428914390   0.785927151872477   1.0
H7   H   0.318271235698483   0.760564083207389   0.518388484010136   1.0
H8   H   0.547412207298874   0.146773846754345   0.620936126123548   1.0
H9   H   0.194475146280374   0.348377060550630   0.599079380812337   1.0
H10   H   0.536815042015025   0.612155917337683   0.758339129733299   1.0
N14   N   0.393665738515376   0.485550506280416   0.751059906282842   1.0
