data_1
_audit_creation_method   'Generated by vasp2cif'
_cell_length_a    7.25995308736
_cell_length_b    4.71114912172
_cell_length_c    7.93230157437
_cell_angle_alpha    105.218011469
_cell_angle_beta    93.3170187395
_cell_angle_gamma    84.4503366141
_symmetry_space_group_name_H-M    'P 1'
loop_
_atom_site_label
_atom_site_type_symbol
_atom_site_fract_x
_atom_site_fract_y
_atom_site_fract_z
_atom_site_occupancy
C1   C   0.577283973758398   0.459410383152331   0.491737476596875   1.0
C2   C   0.675966086788307   0.739969682071695   0.558826168168366   1.0
H3   H   0.796521445334740   0.691880022266396   0.638795374701459   1.0
H4   H   0.726097342159036   0.813238930527326   0.451203929183578   1.0
H5   H   0.447150310778888   0.572484632953518   0.266470792322146   1.0
H6   H   0.316674858285602   0.678517034709806   0.443105010498819   1.0
H7   H   0.666710661470006   0.281319672062502   0.411726076041994   1.0
H8   H   0.586543626098887   0.917057610904365   0.640212557996470   1.0
H9   H   0.524775853718445   0.386782786799287   0.598310702741657   1.0
H10   H   0.339135965903694   0.324954227935059   0.330145556019716   1.0
N14   N   0.409737267991126   0.511018428030368   0.375591565467815   1.0
