data_1
_audit_creation_method   'Generated by vasp2cif'
_cell_length_a    6.12514015319
_cell_length_b    4.33403043738
_cell_length_c    9.84107059048
_cell_angle_alpha    90.3071765727
_cell_angle_beta    84.1289571975
_cell_angle_gamma    90.1231465711
_symmetry_space_group_name_H-M    'P 1'
loop_
_atom_site_label
_atom_site_type_symbol
_atom_site_fract_x
_atom_site_fract_y
_atom_site_fract_z
_atom_site_occupancy
C1   C   0.463277946582437   0.106384512319281   0.468684812708055   1.0
C2   C   0.644626257873455   0.113303298048209   0.563634142459826   1.0
H3   H   0.757968720427925   0.919279275578774   0.543671127824091   1.0
H4   H   0.739525744765047   0.328001347030025   0.553249089628459   1.0
H5   H   0.442319982395730   0.119684075431657   0.252463332258749   1.0
H6   H   0.665637171502354   0.935819327749599   0.294529892912436   1.0
H7   H   0.365096734438254   0.895422585865909   0.478763977950642   1.0
H8   H   0.571722545115598   0.097273500747086   0.669286403370222   1.0
H9   H   0.351373888612940   0.302273893711771   0.484731243241704   1.0
H10   H   0.658652334752681   0.313427204074891   0.300314679109619   1.0
N14   N   0.560552953760727   0.119877553187798   0.320100076155498   1.0
