data_1
_audit_creation_method   'Generated by vasp2cif'
_cell_length_a    8.64378356689
_cell_length_b    4.48538342334
_cell_length_c    6.95103667461
_cell_angle_alpha    72.602033871
_cell_angle_beta    90.5750640594
_cell_angle_gamma    93.063489505
_symmetry_space_group_name_H-M    'P 1'
loop_
_atom_site_label
_atom_site_type_symbol
_atom_site_fract_x
_atom_site_fract_y
_atom_site_fract_z
_atom_site_occupancy
C1   C   0.380533948112929   0.799024579692197   0.410409451000950   1.0
C2   C   0.503318975882559   0.559647851351086   0.436267839349565   1.0
H3   H   0.496331138225268   0.446731077868854   0.316818388906747   1.0
H4   H   0.618112980151749   0.677490913313705   0.426636953624823   1.0
H5   H   0.197422853918070   0.557182856270747   0.301928923557648   1.0
H6   H   0.132085314400875   0.791912395780372   0.421855758381448   1.0
H7   H   0.386041536224488   0.909861348393782   0.530253569950063   1.0
H8   H   0.492388807525108   0.382616415990999   0.583650631972938   1.0
H9   H   0.387673747994644   0.976528079826279   0.263032699663432   1.0
H10   H   0.205578668908206   0.453087016162967   0.555023117622649   1.0
N14   N   0.219046508401091   0.639348144361280   0.423894057222718   1.0
