data_1
_audit_creation_method   'Generated by vasp2cif'
_cell_length_a    11.48198384
_cell_length_b    4.95923040266
_cell_length_c    4.64883513959
_cell_angle_alpha    89.995257889
_cell_angle_beta    89.9335162018
_cell_angle_gamma    83.7781774137
_symmetry_space_group_name_H-M    'P 1'
loop_
_atom_site_label
_atom_site_type_symbol
_atom_site_fract_x
_atom_site_fract_y
_atom_site_fract_z
_atom_site_occupancy
C1   C   0.594970376332142   0.699513787253146   0.547729237264363   1.0
C2   C   0.520527728065957   0.464039575693398   0.523827681718551   1.0
H3   H   0.535714457776933   0.325060140495673   0.706202435732891   1.0
H4   H   0.427864571335093   0.542358507509299   0.523186371230551   1.0
H5   H   0.744903828946995   0.464574049529226   0.721410817186943   1.0
H6   H   0.775154953487430   0.756227378838872   0.571263123878097   1.0
H7   H   0.581800840634713   0.839476784429152   0.366431821370092   1.0
H8   H   0.539321404875643   0.350453285011909   0.324211560228385   1.0
H9   H   0.577640728336746   0.814762323237638   0.746187681693769   1.0
H10   H   0.749652640456560   0.489930709574217   0.365640385243424   1.0
N14   N   0.724492501504571   0.597676773418847   0.551037245089624   1.0
