data_1
_audit_creation_method   'Generated by vasp2cif'
_cell_length_a    8.62200250699
_cell_length_b    4.62424793108
_cell_length_c    6.77432511913
_cell_angle_alpha    93.8465620441
_cell_angle_beta    100.104313146
_cell_angle_gamma    97.9078038674
_symmetry_space_group_name_H-M    'P 1'
loop_
_atom_site_label
_atom_site_type_symbol
_atom_site_fract_x
_atom_site_fract_y
_atom_site_fract_z
_atom_site_occupancy
C1   C   0.607837008251572   0.657155344149167   0.534137946690080   1.0
C2   C   0.467326331161601   0.580579324315337   0.639176703687134   1.0
H3   H   0.373443528210991   0.421712991980861   0.544256068258008   1.0
H4   H   0.505668506302058   0.493810825248317   0.783322360653450   1.0
H5   H   0.721625132149967   0.298395737923514   0.621700353191230   1.0
H6   H   0.781312707156673   0.441562630747654   0.421775082272489   1.0
H7   H   0.571816965185974   0.740578548155980   0.388562046471513   1.0
H8   H   0.417165191795441   0.779955426222578   0.669897656817568   1.0
H9   H   0.702988776827802   0.811762135957927   0.628923999552541   1.0
H10   H   0.600842063415662   0.237113418910759   0.389319998944089   1.0
N14   N   0.683275790910777   0.387935139183916   0.488362449068525   1.0
