data_1
_audit_creation_method   'Generated by vasp2cif'
_cell_length_a    6.39804549017
_cell_length_b    6.46464654949
_cell_length_c    7.40477477569
_cell_angle_alpha    74.7008139081
_cell_angle_beta    88.6658858962
_cell_angle_gamma    85.9040897391
_symmetry_space_group_name_H-M    'P 1'
loop_
_atom_site_label
_atom_site_type_symbol
_atom_site_fract_x
_atom_site_fract_y
_atom_site_fract_z
_atom_site_occupancy
C1   C   0.677695543627522   0.665215783853824   0.385657019971433   1.0
C2   C   0.613898976768546   0.451175196114384   0.361789592922698   1.0
C3   C   0.621301928037312   0.450517032832224   0.155168943604359   1.0
H4   H   0.778627801315849   0.478988739655740   0.096391419302783   1.0
H5   H   0.578946747841862   0.295581765897175   0.139963090574156   1.0
H6   H   0.455266771997259   0.421600330003599   0.418123381848012   1.0
H7   H   0.720175426262557   0.320762642235387   0.442634608009136   1.0
H8   H   0.518221704069745   0.625818996023348   0.646468461938674   1.0
H9   H   0.693695376895853   0.813066860918873   0.612624462728590   1.0
H10   H   0.511026104680404   0.575019531843552   0.072786234221404   1.0
H11   H   0.839069278412317   0.695692998106971   0.341177417285152   1.0
H12   H   0.574032954447745   0.800446911085849   0.310478341304027   1.0
H13   H   0.775600939272110   0.555739351800746   0.668610784502299   1.0
N17   N   0.664871415011731   0.665967562571794   0.590890259470164   1.0
