data_1
_audit_creation_method   'Generated by vasp2cif'
_cell_length_a    6.28749347582
_cell_length_b    6.42401414805
_cell_length_c    7.6021714833
_cell_angle_alpha    102.240207885
_cell_angle_beta    79.1568446031
_cell_angle_gamma    91.5581103294
_symmetry_space_group_name_H-M    'P 1'
loop_
_atom_site_label
_atom_site_type_symbol
_atom_site_fract_x
_atom_site_fract_y
_atom_site_fract_z
_atom_site_occupancy
C1   C   0.403717910798953   0.683302019841165   0.609391348012089   1.0
C2   C   0.329166531101151   0.503386881609217   0.708030796458338   1.0
C3   C   0.446364440488161   0.512535349798839   0.868752953569079   1.0
H4   H   0.403797885164465   0.658395052187423   0.972713412081134   1.0
H5   H   0.402598829821443   0.376610352721734   0.932701228894196   1.0
H6   H   0.363304665993582   0.349912018573057   0.611314811249500   1.0
H7   H   0.153072728847555   0.514431860741134   0.756391282196311   1.0
H8   H   0.331204969927263   0.515751693852977   0.355967004041617   1.0
H9   H   0.352827866410884   0.779481895152500   0.367855188992159   1.0
H10   H   0.622211711628438   0.507916543708376   0.822268937779562   1.0
H11   H   0.358826007488886   0.840641445050451   0.695365661161340   1.0
H12   H   0.578140043024078   0.677261076131103   0.559073527832723   1.0
H13   H   0.132831366264341   0.682989536421296   0.479488573257846   1.0
N17   N   0.298764230895294   0.663982283860214   0.442175057233364   1.0
