data_1
_audit_creation_method   'Generated by vasp2cif'
_cell_length_a    6.28602602072
_cell_length_b    6.42085233067
_cell_length_c    7.63632013662
_cell_angle_alpha    103.090472955
_cell_angle_beta    80.0368832524
_cell_angle_gamma    92.0559431198
_symmetry_space_group_name_H-M    'P 1'
loop_
_atom_site_label
_atom_site_type_symbol
_atom_site_fract_x
_atom_site_fract_y
_atom_site_fract_z
_atom_site_occupancy
C1   C   0.500344792625832   0.606674284088392   0.623862104836689   1.0
C2   C   0.406021120649598   0.438343625187997   0.727386165363534   1.0
C3   C   0.531494738728306   0.432801700759406   0.881341968684310   1.0
H4   H   0.518031253035204   0.585274393478706   0.981501583630582   1.0
H5   H   0.469376046647383   0.306959225337579   0.951406506108029   1.0
H6   H   0.414657197994742   0.281174308429883   0.633000926192651   1.0
H7   H   0.234542316186158   0.472720911859660   0.782309898984714   1.0
H8   H   0.412127543435588   0.444358300041920   0.372677207862537   1.0
H9   H   0.452091202032129   0.707054777854090   0.384764198616367   1.0
H10   H   0.702945276339307   0.400269929899096   0.827299643281265   1.0
H11   H   0.475813788200512   0.769375045632614   0.706741782101091   1.0
H12   H   0.672295957073530   0.581203212929843   0.571260784988425   1.0
H13   H   0.227964971543621   0.624128520595171   0.498357468516573   1.0
N17   N   0.391620666274875   0.594776173902460   0.458912221631763   1.0
