data_1
_audit_creation_method   'Generated by vasp2cif'
_cell_length_a    6.66774199716
_cell_length_b    6.29952866518
_cell_length_c    6.84829093497
_cell_angle_alpha    96.9121512488
_cell_angle_beta    82.8613276125
_cell_angle_gamma    95.7963167136
_symmetry_space_group_name_H-M    'P 1'
loop_
_atom_site_label
_atom_site_type_symbol
_atom_site_fract_x
_atom_site_fract_y
_atom_site_fract_z
_atom_site_occupancy
C1   C   0.502545684847099   0.572360543507671   0.616725276912284   1.0
C2   C   0.506007492594023   0.431672300219333   0.782607258771833   1.0
C3   C   0.594341422062435   0.216692362193996   0.709859827589646   1.0
H4   H   0.744353147417314   0.242195343484355   0.626783036035349   1.0
H5   H   0.610440215768079   0.130660577499754   0.835034067403562   1.0
H6   H   0.352466892898939   0.407014713877118   0.860695013556459   1.0
H7   H   0.599488323798710   0.523477863880238   0.889819401733199   1.0
H8   H   0.391556600939054   0.321238940142465   0.404385080713745   1.0
H9   H   0.352929347084661   0.569263360353226   0.360145460466846   1.0
H10   H   0.496971514949706   0.111912023875448   0.614201921015720   1.0
H11   H   0.451598516286374   0.729871576085095   0.671761487396680   1.0
H12   H   0.650269457956767   0.591544117250649   0.529351392202223   1.0
H13   H   0.208440300968718   0.455584737528639   0.540279210892905   1.0
N17   N   0.354747221131177   0.471004884308179   0.471049969589089   1.0
