data_1
_audit_creation_method   'Generated by vasp2cif'
_cell_length_a    8.23462636443
_cell_length_b    4.6135725369
_cell_length_c    7.87496950037
_cell_angle_alpha    77.3213327441
_cell_angle_beta    88.1694256991
_cell_angle_gamma    77.3820952099
_symmetry_space_group_name_H-M    'P 1'
loop_
_atom_site_label
_atom_site_type_symbol
_atom_site_fract_x
_atom_site_fract_y
_atom_site_fract_z
_atom_site_occupancy
C1   C   0.903634430702603   0.359284048614207   0.381240201205166   1.0
C2   C   0.750946109857672   0.218551613695794   0.417445141730923   1.0
C3   C   0.674892908076920   0.202756687895523   0.244501017999575   1.0
H4   H   0.565756027226143   0.101869970408785   0.269134462745612   1.0
H5   H   0.764903664276957   0.065165113439178   0.172297535537723   1.0
H6   H   0.786978853119514   0.988535816211531   0.499616546779812   1.0
H7   H   0.658781102666488   0.350274759883384   0.490918055555731   1.0
H8   H   0.049293340202986   0.064514327914580   0.595565789741912   1.0
H9   H   0.961462962501066   0.398717938923276   0.639128719436648   1.0
H10   H   0.981678426796506   0.264935317570078   0.283605959491624   1.0
H11   H   0.637652137243471   0.430296086252511   0.160733158873832   1.0
H12   H   0.870288060266240   0.605989863055697   0.336241011121004   1.0
H13   H   0.123933630672511   0.372680055992809   0.506351430054103   1.0
N17   N   0.015878123381249   0.294244201723927   0.540863478336426   1.0
