data_1
_audit_creation_method   'Generated by vasp2cif'
_cell_length_a    8.63754932295
_cell_length_b    4.72443812174
_cell_length_c    8.30865954766
_cell_angle_alpha    86.7697919071
_cell_angle_beta    115.958333351
_cell_angle_gamma    105.901960073
_symmetry_space_group_name_H-M    'P 1'
loop_
_atom_site_label
_atom_site_type_symbol
_atom_site_fract_x
_atom_site_fract_y
_atom_site_fract_z
_atom_site_occupancy
C1   C   0.891564717730546   0.544274075255615   0.376568643633064   1.0
C2   C   0.756231735093778   0.644162661171421   0.413926204195178   1.0
C3   C   0.633681833459924   0.770521588618529   0.247964484768232   1.0
H4   H   0.710698181434211   0.934899141608405   0.192752820564713   1.0
H5   H   0.551028548834310   0.873406759043846   0.280842476707676   1.0
H6   H   0.675430978476534   0.457967296222662   0.453587757818504   1.0
H7   H   0.827505141578882   0.807637896843232   0.529511264129795   1.0
H8   H   0.942445976904310   0.275473257243107   0.599229978872579   1.0
H9   H   0.103347070342743   0.589882070498412   0.639822523317257   1.0
H10   H   0.826471453429946   0.372210211703432   0.266964593147705   1.0
H11   H   0.543652971131777   0.596649330904015   0.140972477764819   1.0
H12   H   0.980017778826998   0.727618879903176   0.344692960025206   1.0
H13   H   0.089807715580520   0.317589239087113   0.510202929058210   1.0
N17   N   0.013525478821507   0.420841411237518   0.541269596254359   1.0
