data_1
_audit_creation_method   'Generated by vasp2cif'
_cell_length_a    8.83795672913
_cell_length_b    4.72536416591
_cell_length_c    8.49015563775
_cell_angle_alpha    101.901676941
_cell_angle_beta    114.562310029
_cell_angle_gamma    70.314451408
_symmetry_space_group_name_H-M    'P 1'
loop_
_atom_site_label
_atom_site_type_symbol
_atom_site_fract_x
_atom_site_fract_y
_atom_site_fract_z
_atom_site_occupancy
C1   C   0.175860106278996   0.390221686388713   0.606779194198459   1.0
C2   C   0.265297116464659   0.637980776378306   0.655346532277385   1.0
C3   C   0.427609291429512   0.571266898443383   0.821496237081718   1.0
H4   H   0.394214571886096   0.575648044854169   0.932760490347135   1.0
H5   H   0.498815501656800   0.737354437660755   0.852134426245350   1.0
H6   H   0.299184447903258   0.654327206636658   0.547381159518075   1.0
H7   H   0.174698461044848   0.853321149968373   0.675286780842832   1.0
H8   H   0.012429254224010   0.514943577317574   0.351127297321540   1.0
H9   H   0.921513557679638   0.677814290613092   0.497733065468935   1.0
H10   H   0.250810977788952   0.180242666537111   0.560534679691962   1.0
H11   H   0.514736036398503   0.349527537869001   0.806457346397728   1.0
H12   H   0.152142345826547   0.349452825940666   0.715474863685110   1.0
H13   H   0.935058597751016   0.316741283456118   0.424026337760026   1.0
N17   N   0.000117891008543   0.479598479267615   0.460862320494194   1.0
