data_1
_audit_creation_method   'Generated by vasp2cif'
_cell_length_a    8.33976700925
_cell_length_b    5.04099427747
_cell_length_c    8.26049630934
_cell_angle_alpha    78.3175558024
_cell_angle_beta    59.671498705
_cell_angle_gamma    93.9285600428
_symmetry_space_group_name_H-M    'P 1'
loop_
_atom_site_label
_atom_site_type_symbol
_atom_site_fract_x
_atom_site_fract_y
_atom_site_fract_z
_atom_site_occupancy
C1   C   0.645074893202327   0.622500327191609   0.917563217139481   1.0
C2   C   0.648138945535969   0.830076963682025   0.753527889847341   1.0
C3   C   0.804768675684528   0.086630252812832   0.670963961933197   1.0
H4   H   0.793437104324887   0.173787897508987   0.786552082759115   1.0
H5   H   0.798296400823091   0.245617751557177   0.564017977659617   1.0
H6   H   0.672202614577301   0.733848369125724   0.637566027504860   1.0
H7   H   0.509174864812032   0.888012552550514   0.807181114967129   1.0
H8   H   0.468721736771173   0.307067115411513   0.906470929149449   1.0
H9   H   0.356603517343714   0.426824444793340   0.100413340841307   1.0
H10   H   0.776827003280317   0.545326457773278   0.864982914907571   1.0
H11   H   0.945641471689179   0.036244467486661   0.597660406770082   1.0
H12   H   0.621351011321607   0.709592336882899   0.036915056956602   1.0
H13   H   0.503560878184985   0.212896525099019   0.093733198834641   1.0
N17   N   0.484129986850910   0.373706586390028   0.009144147365525   1.0
