data_1
_audit_creation_method   'Generated by vasp2cif'
_cell_length_a    6.33211677663
_cell_length_b    6.37789069234
_cell_length_c    10.1680834803
_cell_angle_alpha    59.1230234619
_cell_angle_beta    123.276937303
_cell_angle_gamma    97.6212195611
_symmetry_space_group_name_H-M    'P 1'
loop_
_atom_site_label
_atom_site_type_symbol
_atom_site_fract_x
_atom_site_fract_y
_atom_site_fract_z
_atom_site_occupancy
C1   C   0.882053464523509   0.606571224529013   0.377938957203817   1.0
C2   C   0.716814207969279   0.772211695302133   0.370062361278684   1.0
C3   C   0.548861659917733   0.999104535826469   0.172437624411792   1.0
H4   H   0.669165996755659   0.109508357064662   0.127744816867839   1.0
H5   H   0.432469279182705   0.117368290469308   0.167459754338175   1.0
H6   H   0.595860049040439   0.664068927065877   0.416121072252459   1.0
H7   H   0.842144280475921   0.834993345769313   0.465503593769810   1.0
H8   H   0.966657959421703   0.288974639363268   0.635336926513887   1.0
H9   H   0.196175372298988   0.453163210239204   0.660634254923323   1.0
H10   H   0.764816962589371   0.523637582893357   0.295977650270586   1.0
H11   H   0.419264787997818   0.943150608438962   0.073651621863547   1.0
H12   H   0.003193590155121   0.708485181874941   0.330432830926775   1.0
H13   H   0.168437004324531   0.269410239946580   0.581650232698294   1.0
N17   N   0.065775628548693   0.389339219730367   0.576598940564907   1.0
