data_1
_audit_creation_method   'Generated by vasp2cif'
_cell_length_a    6.75127496886
_cell_length_b    6.27674024626
_cell_length_c    8.05338736909
_cell_angle_alpha    74.4599224522
_cell_angle_beta    74.0133399097
_cell_angle_gamma    79.8754322422
_symmetry_space_group_name_H-M    'P 1'
loop_
_atom_site_label
_atom_site_type_symbol
_atom_site_fract_x
_atom_site_fract_y
_atom_site_fract_z
_atom_site_occupancy
C1   C   0.525430376546197   0.671200141411475   0.802083195443785   1.0
C2   C   0.491227120421740   0.283829894690392   0.504729846657455   1.0
C3   C   0.449482796201117   0.384189888800883   0.665079317223643   1.0
C4   C   0.560664098514188   0.591364009920341   0.631248079396592   1.0
H5   H   0.215900383709794   0.434750458095117   0.422784983028727   1.0
H6   H   0.401914978299018   0.353957137664615   0.261610513211984   1.0
H7   H   0.415708905088159   0.586807324168454   0.320890684832996   1.0
H8   H   0.359769943972587   0.702088040949491   0.861212279314238   1.0
H9   H   0.594631868966509   0.545965997391988   0.900386332016716   1.0
H10   H   0.595088655233404   0.824457976431866   0.776326896253480   1.0
H11   H   0.501067466192694   0.254563737524862   0.770460823826909   1.0
H12   H   0.281429207255862   0.422240155373991   0.715116503594416   1.0
H13   H   0.727575343653328   0.551789378288831   0.577515332987609   1.0
H14   H   0.505790295055903   0.726657179708120   0.530130474887528   1.0
H15   H   0.654555463478083   0.273568379201961   0.435286998965175   1.0
H16   H   0.437937923041623   0.119894209530479   0.540030445401463   1.0
N20   N   0.373591671717548   0.426343637910193   0.368699942415873   1.0
