data_1
_audit_creation_method   'Generated by vasp2cif'
_cell_length_a    6.77382089278
_cell_length_b    7.44009656997
_cell_length_c    6.68034329117
_cell_angle_alpha    79.0184776989
_cell_angle_beta    97.6987409875
_cell_angle_gamma    109.895402026
_symmetry_space_group_name_H-M    'P 1'
loop_
_atom_site_label
_atom_site_type_symbol
_atom_site_fract_x
_atom_site_fract_y
_atom_site_fract_z
_atom_site_occupancy
C1   C   0.204684427966683   0.669078764608180   0.532090842555917   1.0
C2   C   0.431521280310470   0.281950481031252   0.419910657346342   1.0
C3   C   0.334270388515783   0.443467514997252   0.382115841388419   1.0
C4   C   0.291472834892431   0.499317858599042   0.578744050838104   1.0
H5   H   0.746570921645542   0.468125588207933   0.427508867882409   1.0
H6   H   0.722515703521175   0.241265885248872   0.537275439845892   1.0
H7   H   0.660047862073291   0.388103103036343   0.662371233068100   1.0
H8   H   0.321540931593269   0.800638787454723   0.462509586259301   1.0
H9   H   0.065992980051774   0.639707754483048   0.423057925826207   1.0
H10   H   0.161723948764944   0.698229302004322   0.671069202234513   1.0
H11   H   0.185857709574527   0.393734471584750   0.288800806877035   1.0
H12   H   0.434948936850361   0.571280373002928   0.288200373424829   1.0
H13   H   0.180065640382217   0.372616584601190   0.664424717550304   1.0
H14   H   0.435661147825613   0.539224482315035   0.680515060278580   1.0
H15   H   0.344519742346812   0.155854064127730   0.523088260290216   1.0
H16   H   0.445830456184034   0.236524676967903   0.278272094274101   1.0
N20   N   0.654878488438989   0.350155700714510   0.520122528013211   1.0
