data_1
_audit_creation_method   'Generated by vasp2cif'
_cell_length_a    7.2231830513
_cell_length_b    6.09151317299
_cell_length_c    7.83605168898
_cell_angle_alpha    70.793063265
_cell_angle_beta    81.2831215449
_cell_angle_gamma    90.1578533916
_symmetry_space_group_name_H-M    'P 1'
loop_
_atom_site_label
_atom_site_type_symbol
_atom_site_fract_x
_atom_site_fract_y
_atom_site_fract_z
_atom_site_occupancy
C1   C   0.462108937251983   0.630577846543666   0.815610903485364   1.0
C2   C   0.484705055099781   0.235376133251826   0.508152361770655   1.0
C3   C   0.406056934315849   0.345934082202696   0.650630119907930   1.0
C4   C   0.540273842904952   0.535229865210766   0.662642146846586   1.0
H5   H   0.365138577844426   0.460500162179379   0.287605445557943   1.0
H6   H   0.559664111986876   0.340283857301571   0.220427635837197   1.0
H7   H   0.576306026756392   0.561789143662985   0.299434285501562   1.0
H8   H   0.332316309117537   0.717312196938870   0.788003909123489   1.0
H9   H   0.428461119195276   0.488602472545772   0.946467154731913   1.0
H10   H   0.563088957107176   0.754238757036028   0.830131735127047   1.0
H11   H   0.380668067927644   0.205877082651753   0.783539720108415   1.0
H12   H   0.269105949597396   0.415653188526477   0.623580620956972   1.0
H13   H   0.676737292547941   0.462299810232579   0.685866165397748   1.0
H14   H   0.566977203193808   0.680493235278625   0.532130133946765   1.0
H15   H   0.626446488060971   0.177941860052783   0.523209482621169   1.0
H16   H   0.394440867317201   0.089497975792057   0.511414688643946   1.0
N20   N   0.497778033154809   0.412076115175971   0.316641012275532   1.0
