data_1
_audit_creation_method   'Generated by vasp2cif'
_cell_length_a    6.80055721845
_cell_length_b    6.51612484364
_cell_length_c    6.59024108904
_cell_angle_alpha    81.0845592311
_cell_angle_beta    83.046829496
_cell_angle_gamma    89.5775585951
_symmetry_space_group_name_H-M    'P 1'
loop_
_atom_site_label
_atom_site_type_symbol
_atom_site_fract_x
_atom_site_fract_y
_atom_site_fract_z
_atom_site_occupancy
C1   C   0.415709362939310   0.714357498330251   0.207117470807908   1.0
C2   C   0.568058677909590   0.885971886241322   0.205646796255344   1.0
C3   C   0.498771813752533   0.044623575843190   0.345469926721968   1.0
H4   H   0.470296934144130   0.970539250812557   0.507346417804889   1.0
H5   H   0.607588974333055   0.169479863915754   0.333215450785474   1.0
H6   H   0.360853712041205   0.112976931791515   0.299732601032360   1.0
H7   H   0.862557896455741   0.902554929010996   0.283292273232974   1.0
H8   H   0.614359496941688   0.961717741512132   0.047218331650455   1.0
H9   H   0.476987038033606   0.591467054099446   0.123333626268931   1.0
H10   H   0.291852387913181   0.782161931590487   0.129042826673860   1.0
H11   H   0.358955693978025   0.645631807326055   0.365504387101190   1.0
H12   H   0.822011936909476   0.685531136468434   0.187032110232501   1.0
H13   H   0.727757917658863   0.706310986304814   0.429029200951085   1.0
N17   N   0.758857776376679   0.788064714532759   0.280655594169815   1.0
