data_1
_audit_creation_method   'Generated by vasp2cif'
_cell_length_a    7.96031337467
_cell_length_b    4.77295980831
_cell_length_c    8.38011368747
_cell_angle_alpha    105.127911746
_cell_angle_beta    91.0440801691
_cell_angle_gamma    108.620900182
_symmetry_space_group_name_H-M    'P 1'
loop_
_atom_site_label
_atom_site_type_symbol
_atom_site_fract_x
_atom_site_fract_y
_atom_site_fract_z
_atom_site_occupancy
C1   C   0.345357995996139   0.635235740298967   0.321155294126164   1.0
C2   C   0.452504840994031   0.463169928354155   0.384747366503937   1.0
C3   C   0.576083756215496   0.368657775567165   0.260527750441618   1.0
H4   H   0.497483302191455   0.220924908302450   0.143159789197256   1.0
H5   H   0.652287839368007   0.245618134882932   0.305329561781598   1.0
H6   H   0.670671406494165   0.571137392593791   0.234161399235497   1.0
H7   H   0.493230191670747   0.750925488579050   0.637930576372092   1.0
H8   H   0.361715367090731   0.265802055135438   0.417886582180550   1.0
H9   H   0.432210521797593   0.811205109002373   0.270271143939105   1.0
H10   H   0.244826768321431   0.469563451464531   0.220586992579641   1.0
H11   H   0.275446730163836   0.739151239818526   0.417692033008031   1.0
H12   H   0.630465306796246   0.543508778588077   0.599337971217238   1.0
H13   H   0.668768236856742   0.854418263519449   0.533720547728088   1.0
N17   N   0.567628482712941   0.665298735929554   0.549686273760848   1.0
