data_1
_audit_creation_method   'Generated by vasp2cif'
_cell_length_a    8.00847027506
_cell_length_b    4.53500123154
_cell_length_c    8.21499226739
_cell_angle_alpha    76.5784866446
_cell_angle_beta    77.8920404967
_cell_angle_gamma    90.3682225942
_symmetry_space_group_name_H-M    'P 1'
loop_
_atom_site_label
_atom_site_type_symbol
_atom_site_fract_x
_atom_site_fract_y
_atom_site_fract_z
_atom_site_occupancy
C1   C   0.577204235010285   0.015627678812429   0.303913732336518   1.0
C2   C   0.546757393557378   0.989425575055762   0.496655383942589   1.0
C3   C   0.681335504315655   0.172684295613813   0.544266127988848   1.0
H4   H   0.805282285418528   0.077170777110403   0.511522407110881   1.0
H5   H   0.654778840057539   0.164620652996199   0.681236625352042   1.0
H6   H   0.692178443825746   0.409551324470776   0.471427815877107   1.0
H7   H   0.348454637016005   0.096567674760770   0.690699228986418   1.0
H8   H   0.541889412047979   0.752858490264373   0.567494242195643   1.0
H9   H   0.478179333670163   0.892003720746146   0.268357820972156   1.0
H10   H   0.582850464279495   0.253690905614562   0.233287609436118   1.0
H11   H   0.700329327066669   0.923356753549207   0.261630781468582   1.0
H12   H   0.344375336667511   0.304896732344211   0.494642009204938   1.0
H13   H   0.272739447804099   0.946360069448673   0.550086982960231   1.0
N17   N   0.367238808800728   0.091854409917914   0.562738716853438   1.0
