data_1
_audit_creation_method   'Generated by vasp2cif'
_cell_length_a    6.56283044321
_cell_length_b    6.45221272942
_cell_length_c    6.42350701199
_cell_angle_alpha    81.9348379284
_cell_angle_beta    100.410561382
_cell_angle_gamma    97.1530059221
_symmetry_space_group_name_H-M    'P 1'
loop_
_atom_site_label
_atom_site_type_symbol
_atom_site_fract_x
_atom_site_fract_y
_atom_site_fract_z
_atom_site_occupancy
H4   H   0.508767105455749   0.660231615477870   0.380461592324059   1.0
H5   H   0.718140820631592   0.394448169841334   0.327547673119386   1.0
H6   H   0.650712490044532   0.566070950439113   0.608271074987389   1.0
H7   H   0.199887947450413   0.438606959960330   0.470665211935798   1.0
H8   H   0.355356628601300   0.341632530596038   0.715499773961788   1.0
H9   H   0.307028046828823   0.612862917132705   0.665951656423073   1.0
H10   H   0.444809965390394   0.321121898813966   0.255709474451965   1.0
H11   H   0.583265276953974   0.211043835456079   0.505147119623295   1.0
C12   C   0.330751849556870   0.476690733233459   0.594685218044649   1.0
C13   C   0.571649773328262   0.349593201428400   0.386840042237886   1.0
N15   N   0.524397597670572   0.528690415507945   0.493022266783117   1.0
