data_1
_audit_creation_method   'Generated by vasp2cif'
_cell_length_a    6.49205070099
_cell_length_b    6.5209834677
_cell_length_c    6.45325411032
_cell_angle_alpha    82.1403221569
_cell_angle_beta    100.256437238
_cell_angle_gamma    98.6467313515
_symmetry_space_group_name_H-M    'P 1'
loop_
_atom_site_label
_atom_site_type_symbol
_atom_site_fract_x
_atom_site_fract_y
_atom_site_fract_z
_atom_site_occupancy
H4   H   0.402497996870416   0.623623107216574   0.293128682731172   1.0
H5   H   0.658880244298395   0.392089598292706   0.288082172098697   1.0
H6   H   0.596730139261908   0.646649179757588   0.494045036842486   1.0
H7   H   0.172256791292462   0.402886896793746   0.517475525276566   1.0
H8   H   0.383477973434367   0.428184384357493   0.736275426528643   1.0
H9   H   0.263769362603334   0.652917208340526   0.609127935922437   1.0
H10   H   0.405223473185117   0.250330566817567   0.317696597454606   1.0
H11   H   0.608984416787997   0.270359881031325   0.543727619455197   1.0
C12   C   0.308621234063622   0.504510849899660   0.586928211190838   1.0
C13   C   0.541076141138340   0.348865531959085   0.392634283297475   1.0
N15   N   0.466778997369005   0.545620423347735   0.435236649821846   1.0
