data_1
_audit_creation_method   'Generated by vasp2cif'
_cell_length_a    6.52802452135
_cell_length_b    6.48986719712
_cell_length_c    6.43439734786
_cell_angle_alpha    80.5785591646
_cell_angle_beta    99.8950301661
_cell_angle_gamma    97.2805406667
_symmetry_space_group_name_H-M    'P 1'
loop_
_atom_site_label
_atom_site_type_symbol
_atom_site_fract_x
_atom_site_fract_y
_atom_site_fract_z
_atom_site_occupancy
H4   H   0.527905565531476   0.656126660487978   0.373632358009523   1.0
H5   H   0.669572375315163   0.356392286724159   0.295105578762438   1.0
H6   H   0.660203719909056   0.531048551356413   0.593141224572300   1.0
H7   H   0.196934124795156   0.490799971875390   0.476651654809032   1.0
H8   H   0.341965675829996   0.359226568806164   0.712161011031675   1.0
H9   H   0.346421114216888   0.639453046089258   0.672801593456953   1.0
H10   H   0.389840551704573   0.333562207141398   0.242377010407843   1.0
H11   H   0.520987901534276   0.191954490971192   0.480316684416664   1.0
C12   C   0.337383896896434   0.501068824444573   0.595209727723280   1.0
C13   C   0.526948053628168   0.335395431317814   0.365685055300752   1.0
N15   N   0.525233638496026   0.519212317397383   0.482278264722318   1.0
