data_1
_audit_creation_method   'Generated by vasp2cif'
_cell_length_a    6.57161827748
_cell_length_b    6.43263553456
_cell_length_c    6.36952859853
_cell_angle_alpha    88.2723719426
_cell_angle_beta    84.9347007567
_cell_angle_gamma    79.0850677846
_symmetry_space_group_name_H-M    'P 1'
loop_
_atom_site_label
_atom_site_type_symbol
_atom_site_fract_x
_atom_site_fract_y
_atom_site_fract_z
_atom_site_occupancy
H4   H   0.413254371586192   0.670454424781925   0.346467558800334   1.0
H5   H   0.289841231537098   0.341338463690357   0.357458579878561   1.0
H6   H   0.602815263626327   0.479544410297643   0.248661516801778   1.0
H7   H   0.562292185534109   0.652684475814239   0.680747958641374   1.0
H8   H   0.766822241915757   0.447468361979858   0.576042243355104   1.0
H9   H   0.739297639310347   0.709912865611239   0.466822946359320   1.0
H10   H   0.298258143249412   0.437215255394238   0.616841419727208   1.0
H11   H   0.498867472020827   0.228368355800633   0.512645908041553   1.0
C12   C   0.657280698065751   0.590654816355484   0.539398103151468   1.0
C13   C   0.390202378971549   0.371908344557815   0.475064066300902   1.0
N15   N   0.514570351042092   0.534177886164430   0.385711589006924   1.0
