data_1
_audit_creation_method   'Generated by vasp2cif'
_cell_length_a    6.43209494227
_cell_length_b    4.49025576678
_cell_length_c    9.19993680056
_cell_angle_alpha    89.6287386377
_cell_angle_beta    80.8420767534
_cell_angle_gamma    88.1329807939
_symmetry_space_group_name_H-M    'P 1'
loop_
_atom_site_label
_atom_site_type_symbol
_atom_site_fract_x
_atom_site_fract_y
_atom_site_fract_z
_atom_site_occupancy
H4   H   0.225684569956151   0.369634159080867   0.525630428888697   1.0
H5   H   0.595982836029293   0.437450531583451   0.420960967103355   1.0
H6   H   0.562553932800355   0.799403315849531   0.419435834839085   1.0
H7   H   0.505674976404059   0.417136190396405   0.688602718197423   1.0
H8   H   0.724002149656627   0.648686272680045   0.627011335034382   1.0
H9   H   0.467237521462046   0.811826594641062   0.689199623060240   1.0
H10   H   0.259492319515616   0.562481985919916   0.352481668960536   1.0
H11   H   0.186532292030528   0.764076472613212   0.521390890661806   1.0
C12   C   0.555063416455617   0.623547119688737   0.632235139024665   1.0
C13   C   0.276432921133676   0.573930446050326   0.467973092671372   1.0
N15   N   0.506328455246582   0.611214725952621   0.476894432425666   1.0
