data_1
_audit_creation_method   'Generated by vasp2cif'
_cell_length_a    6.56592719782
_cell_length_b    4.49238352175
_cell_length_c    8.88348784914
_cell_angle_alpha    91.5713143297
_cell_angle_beta    82.9855102093
_cell_angle_gamma    97.6548610353
_symmetry_space_group_name_H-M    'P 1'
loop_
_atom_site_label
_atom_site_type_symbol
_atom_site_fract_x
_atom_site_fract_y
_atom_site_fract_z
_atom_site_occupancy
H4   H   0.701301601946149   0.305431593755017   0.446648045514458   1.0
H5   H   0.396853523356043   0.502605192661278   0.578214376670488   1.0
H6   H   0.530902015986257   0.834486537640394   0.596666343699283   1.0
H7   H   0.449846382939647   0.515351382096242   0.305990555068391   1.0
H8   H   0.334309529930408   0.832926384552863   0.383292239479637   1.0
H9   H   0.605655265592553   0.870687792409292   0.314451405493188   1.0
H10   H   0.730306397501202   0.434377674981789   0.637650085832817   1.0
H11   H   0.847983855293755   0.658420729345067   0.479063628565960   1.0
C12   C   0.474229417667352   0.724246417748788   0.370535806446796   1.0
C13   C   0.715380408384640   0.499319693110785   0.522809187959801   1.0
N15   N   0.521704588811993   0.647872651038234   0.526251759384479   1.0
