data_1
_audit_creation_method   'Generated by vasp2cif'
_cell_length_a    8.25931128394
_cell_length_b    4.602523242
_cell_length_c    7.55692191904
_cell_angle_alpha    106.297966539
_cell_angle_beta    96.5746159166
_cell_angle_gamma    100.873501778
_symmetry_space_group_name_H-M    'P 1'
loop_
_atom_site_label
_atom_site_type_symbol
_atom_site_fract_x
_atom_site_fract_y
_atom_site_fract_z
_atom_site_occupancy
H4   H   0.417804298171980   0.589632737634616   0.322625938944384   1.0
H5   H   0.546984308095610   0.012559307640792   0.616249287955767   1.0
H6   H   0.600195180767791   0.249089122999123   0.494175447747018   1.0
H7   H   0.251919670921929   0.931928205439398   0.505719483630742   1.0
H8   H   0.346530677081290   0.337560119124987   0.604607952244258   1.0
H9   H   0.298252646348637   0.158110173975579   0.353927441965901   1.0
H10   H   0.640874131941509   0.733635025002606   0.348553150618116   1.0
H11   H   0.497549033563622   0.848340854737401   0.200653416258938   1.0
C12   C   0.338325137677096   0.128535664828583   0.488758562652457   1.0
C13   C   0.517725937956364   0.785229454343323   0.328490638052273   1.0
N15   N   0.510119924857804   0.057775347385657   0.491986123826209   1.0
