data_1
_audit_creation_method   'Generated by vasp2cif'
_cell_length_a    6.77716133676
_cell_length_b    4.69303890915
_cell_length_c    8.28663286657
_cell_angle_alpha    78.1787545828
_cell_angle_beta    86.2155105115
_cell_angle_gamma    82.1793620471
_symmetry_space_group_name_H-M    'P 1'
loop_
_atom_site_label
_atom_site_type_symbol
_atom_site_fract_x
_atom_site_fract_y
_atom_site_fract_z
_atom_site_occupancy
H4   H   0.331687511392360   0.135132344075693   0.545589106278342   1.0
H5   H   0.645303220537222   0.361364722477681   0.492578971712341   1.0
H6   H   0.519206165125631   0.667297917497145   0.397524690413434   1.0
H7   H   0.468723394001039   0.378330786271739   0.752109075995399   1.0
H8   H   0.567856957278288   0.714843550017655   0.674256152778376   1.0
H9   H   0.307372711292956   0.690319403252140   0.654980987888898   1.0
H10   H   0.406581142576336   0.238441257435362   0.330639093014092   1.0
H11   H   0.214277503271091   0.461666053194293   0.422569695488726   1.0
C12   C   0.458542301809807   0.575784725931548   0.655857326565524   1.0
C13   C   0.353089929514994   0.315144665333356   0.443113409074961   1.0
N15   N   0.506311792930056   0.485975921883906   0.490896189064983   1.0
