data_1
_audit_creation_method   'Generated by vasp2cif'
_cell_length_a    6.49888292528
_cell_length_b    6.55084549231
_cell_length_c    6.53335421663
_cell_angle_alpha    90.8270531113
_cell_angle_beta    99.8636787356
_cell_angle_gamma    80.9164856874
_symmetry_space_group_name_H-M    'P 1'
loop_
_atom_site_label
_atom_site_type_symbol
_atom_site_fract_x
_atom_site_fract_y
_atom_site_fract_z
_atom_site_occupancy
C1   C   0.371221702737650   0.408608491724394   0.594150372012031   1.0
C2   C   0.514505303138407   0.516275635840238   0.492069223834484   1.0
H3   H   0.684016790516274   0.501771246226937   0.251044626471327   1.0
H4   H   0.670827616044953   0.768323013115975   0.512713163168634   1.0
H5   H   0.359792443705480   0.255691192802878   0.529380937756137   1.0
H6   H   0.212871388856556   0.501021810106081   0.571171771026073   1.0
H7   H   0.429666086976312   0.393479771789110   0.761442575800835   1.0
H8   H   0.520385268411161   0.747743366503215   0.703865814274209   1.0
H9   H   0.542746770400335   0.300881578799682   0.266427811942585   1.0
N13   N   0.582760197735929   0.437126650383057   0.323885256760882   1.0
N14   N   0.568492569474664   0.691356901433593   0.570990340427741   1.0
