data_1
_audit_creation_method   'Generated by vasp2cif'
_cell_length_a    6.51063221582
_cell_length_b    6.55059261319
_cell_length_c    6.55897955037
_cell_angle_alpha    89.0915260146
_cell_angle_beta    99.7589972072
_cell_angle_gamma    99.7091691584
_symmetry_space_group_name_H-M    'P 1'
loop_
_atom_site_label
_atom_site_type_symbol
_atom_site_fract_x
_atom_site_fract_y
_atom_site_fract_z
_atom_site_occupancy
C1   C   0.634694285531296   0.507488126421649   0.524339278631480   1.0
C2   C   0.495710834935409   0.614965164785708   0.630266003737098   1.0
H3   H   0.328774404679223   0.593766990760400   0.872831782912570   1.0
H4   H   0.329377909484570   0.858326614904797   0.608702646990423   1.0
H5   H   0.748221925023707   0.441928544922838   0.637583046244735   1.0
H6   H   0.720352462762321   0.613459250912683   0.425608732532893   1.0
H7   H   0.535940664081423   0.380462758843954   0.427752807740369   1.0
H8   H   0.480169309095594   0.844053065705289   0.417344271404623   1.0
H9   H   0.479056717299180   0.401662785161058   0.859002619799924   1.0
N13   N   0.433344000273315   0.534919400139643   0.800701669180242   1.0
N14   N   0.433948449824705   0.785802188052351   0.550180845861242   1.0
