data_1
_audit_creation_method   'Generated by vasp2cif'
_cell_length_a    6.49412569905
_cell_length_b    6.60178126068
_cell_length_c    6.36949626344
_cell_angle_alpha    85.5658685047
_cell_angle_beta    99.3465037779
_cell_angle_gamma    89.465812849
_symmetry_space_group_name_H-M    'P 1'
loop_
_atom_site_label
_atom_site_type_symbol
_atom_site_fract_x
_atom_site_fract_y
_atom_site_fract_z
_atom_site_occupancy
C1   C   0.572238583227048   0.468742960871680   0.428889293479820   1.0
C2   C   0.514877465093733   0.626863328850177   0.566319356866835   1.0
H3   H   0.325384120909810   0.690853932552322   0.784669583055745   1.0
H4   H   0.590414148507740   0.908658849141474   0.668984985264970   1.0
H5   H   0.595417213121792   0.538678710569918   0.273571445021673   1.0
H6   H   0.452455632986279   0.354546314173170   0.406582213544439   1.0
H7   H   0.719755297104577   0.393768689164418   0.505791601243310   1.0
H8   H   0.729099394780221   0.826169323494085   0.479267303121965   1.0
H9   H   0.290321650993079   0.457485235545988   0.677906274234701   1.0
N13   N   0.369942998711380   0.589144073538776   0.687777598995979   1.0
N14   N   0.613674523708227   0.801589581326319   0.567319951030136   1.0
