data_1
_audit_creation_method   'Generated by vasp2cif'
_cell_length_a    6.86516607902
_cell_length_b    4.42488684465
_cell_length_c    8.71651614621
_cell_angle_alpha    90.0315741736
_cell_angle_beta    96.2272341711
_cell_angle_gamma    102.608427492
_symmetry_space_group_name_H-M    'P 1'
loop_
_atom_site_label
_atom_site_type_symbol
_atom_site_fract_x
_atom_site_fract_y
_atom_site_fract_z
_atom_site_occupancy
C1   C   0.427701562590094   0.884555244831084   0.605280227539758   1.0
C2   C   0.540562336221242   0.826546078147601   0.474546139256354   1.0
H3   H   0.392722627814464   0.067656734747459   0.321199325820437   1.0
H4   H   0.570699863414433   0.903283253657641   0.244613963708630   1.0
H5   H   0.337140971344624   0.665195578064562   0.640278310529034   1.0
H6   H   0.532583044513743   0.983984424881733   0.705399214315193   1.0
H7   H   0.327739923945131   0.039453045969346   0.571649302361358   1.0
H8   H   0.761845234445197   0.614212815315987   0.413516115180244   1.0
H9   H   0.715166984998191   0.579653764319787   0.604106403119182   1.0
N13   N   0.505517661401662   0.950617923655564   0.339091911516945   1.0
N14   N   0.674710215910906   0.649222130123917   0.496460966272238   1.0
