data_1
_audit_creation_method   'Generated by vasp2cif'
_cell_length_a    6.83023326324
_cell_length_b    4.36485389722
_cell_length_c    9.4190248619
_cell_angle_alpha    107.384790209
_cell_angle_beta    77.2504507014
_cell_angle_gamma    91.4996328909
_symmetry_space_group_name_H-M    'P 1'
loop_
_atom_site_label
_atom_site_type_symbol
_atom_site_fract_x
_atom_site_fract_y
_atom_site_fract_z
_atom_site_occupancy
C1   C   0.466770569978614   0.530722641629360   0.645187313237209   1.0
C2   C   0.473551472267829   0.324453839131536   0.485596332978737   1.0
H3   H   0.359266293909698   0.264760813047516   0.294744105172882   1.0
H4   H   0.247385714225921   0.576439343358452   0.455902062006985   1.0
H5   H   0.442351133235228   0.383168050234381   0.722421215433791   1.0
H6   H   0.611774367437924   0.641766223433017   0.650939562943101   1.0
H7   H   0.348227592373568   0.718663208136086   0.683128187706487   1.0
H8   H   0.617853933924465   0.929330178789208   0.317520967260698   1.0
H9   H   0.704992125941722   0.041300582674090   0.486105774027045   1.0
N13   N   0.355891348409571   0.397995265685218   0.404694016789918   1.0
N14   N   0.600957226540622   0.070283685488398   0.427803917006557   1.0
