data_1
_audit_creation_method   'Generated by vasp2cif'
_cell_length_a    8.45580084348
_cell_length_b    4.43583200083
_cell_length_c    7.19921939263
_cell_angle_alpha    90.2347037523
_cell_angle_beta    87.6842169591
_cell_angle_gamma    79.9377601049
_symmetry_space_group_name_H-M    'P 1'
loop_
_atom_site_label
_atom_site_type_symbol
_atom_site_fract_x
_atom_site_fract_y
_atom_site_fract_z
_atom_site_occupancy
C1   C   0.598381773590780   0.934147544159707   0.520073383792717   1.0
C2   C   0.488953773487807   0.740478613323322   0.439927118732456   1.0
H3   H   0.334577423599588   0.798074317078415   0.667355887610864   1.0
H4   H   0.282140699493144   0.558127964806519   0.498313150062046   1.0
H5   H   0.689709831573543   0.786583596871514   0.598136383446286   1.0
H6   H   0.660795977865906   0.042760145784164   0.410607194872178   1.0
H7   H   0.532014047037663   0.105861623384982   0.616405506154815   1.0
H8   H   0.454139902246329   0.483178677237035   0.209105099653978   1.0
H9   H   0.619370299672212   0.667423759140883   0.194633893746637   1.0
N13   N   0.361485350472125   0.690396091906443   0.541718206182710   1.0
N14   N   0.525090825000010   0.613462511814277   0.273155105999151   1.0
