data_1
_audit_creation_method   'Generated by vasp2cif'
_cell_length_a    6.33850520346
_cell_length_b    6.16034644418
_cell_length_c    6.19938360535
_cell_angle_alpha    91.0597515122
_cell_angle_beta    94.8239259272
_cell_angle_gamma    88.0846309123
_symmetry_space_group_name_H-M    'P 1'
loop_
_atom_site_label
_atom_site_type_symbol
_atom_site_fract_x
_atom_site_fract_y
_atom_site_fract_z
_atom_site_occupancy
H4   H   0.510507062066004   0.503685927860531   0.273716051320101   1.0
H5   H   0.634484022929001   0.366476754953915   0.478061619814120   1.0
H6   H   0.619198053441508   0.638592244181758   0.487205633621251   1.0
H7   H   0.253493403795638   0.342018945848245   0.495083855283191   1.0
H8   H   0.368999848113987   0.493183657944051   0.722792539414620   1.0
H9   H   0.231711887084522   0.633153132933636   0.499040462798774   1.0
C10   C   0.330586290068638   0.491611747663164   0.548184242388515   1.0
N12   N   0.536059920910567   0.500974402080658   0.440124336993563   1.0
