data_1
_audit_creation_method   'Generated by vasp2cif'
_cell_length_a    6.20049051649
_cell_length_b    6.18569819007
_cell_length_c    6.34684868246
_cell_angle_alpha    85.702742929
_cell_angle_beta    84.5178283023
_cell_angle_gamma    89.4938035287
_symmetry_space_group_name_H-M    'P 1'
loop_
_atom_site_label
_atom_site_type_symbol
_atom_site_fract_x
_atom_site_fract_y
_atom_site_fract_z
_atom_site_occupancy
H4   H   0.314279489401500   0.364497296563357   0.499702020132368   1.0
H5   H   0.555059780221384   0.406837811669561   0.360847204147483   1.0
H6   H   0.381108926401488   0.611006858746109   0.384142129712792   1.0
H7   H   0.599835712283493   0.384801480533866   0.739770113242336   1.0
H8   H   0.665855565123110   0.649967953646822   0.617599238094648   1.0
H9   H   0.408456685216421   0.602210891066584   0.768082644454282   1.0
C10   C   0.536585796131824   0.532830673269046   0.664101848188544   1.0
N12   N   0.439809962379741   0.474886168572347   0.464915342751361   1.0
