data_1
_audit_creation_method   'Generated by vasp2cif'
_cell_length_a    6.64939155295
_cell_length_b    4.47594078679
_cell_length_c    8.26105543295
_cell_angle_alpha    102.055048914
_cell_angle_beta    79.105130723
_cell_angle_gamma    93.3154990723
_symmetry_space_group_name_H-M    'P 1'
loop_
_atom_site_label
_atom_site_type_symbol
_atom_site_fract_x
_atom_site_fract_y
_atom_site_fract_z
_atom_site_occupancy
H4   H   0.321945729763122   0.747080389630099   0.500814008952268   1.0
H5   H   0.567704668371569   0.715926733564558   0.395290701414034   1.0
H6   H   0.414153794217725   0.957755430339191   0.356359166872011   1.0
H7   H   0.557643967570776   0.996549843788998   0.684080177117295   1.0
H8   H   0.651811985152015   0.228065018361598   0.533774564179929   1.0
H9   H   0.390510434616033   0.261976375747096   0.645353630310126   1.0
C10   C   0.517779488297499   0.108446403987862   0.589626456929928   1.0
N12   N   0.450176965169128   0.865509359295466   0.452353027644229   1.0
