data_1
_audit_creation_method   'Generated by vasp2cif'
_cell_length_a    6.92577875336
_cell_length_b    4.51513903493
_cell_length_c    8.38332254606
_cell_angle_alpha    106.176918587
_cell_angle_beta    84.5570713808
_cell_angle_gamma    75.1478200589
_symmetry_space_group_name_H-M    'P 1'
loop_
_atom_site_label
_atom_site_type_symbol
_atom_site_fract_x
_atom_site_fract_y
_atom_site_fract_z
_atom_site_occupancy
H4   H   0.693363872464779   0.303740284765290   0.475253630450354   1.0
H5   H   0.538386740981728   0.616019619250174   0.637854905247679   1.0
H6   H   0.706679908048692   0.671300937876651   0.499833860602521   1.0
H7   H   0.359235164404389   0.427661759043936   0.400259246528172   1.0
H8   H   0.356260248684521   0.838145024126725   0.442684078726551   1.0
H9   H   0.533551567229871   0.530917919441336   0.268867212811251   1.0
C10   C   0.451519610603164   0.588158085204270   0.396150621558292   1.0
N12   N   0.604892758134142   0.542826236952770   0.511344915327513   1.0
