data_1
_audit_creation_method   'Generated by vasp2cif'
_cell_length_a    8.48310752633
_cell_length_b    4.42952342676
_cell_length_c    6.27596201822
_cell_angle_alpha    86.7451864142
_cell_angle_beta    94.1483853225
_cell_angle_gamma    90.3283282458
_symmetry_space_group_name_H-M    'P 1'
loop_
_atom_site_label
_atom_site_type_symbol
_atom_site_fract_x
_atom_site_fract_y
_atom_site_fract_z
_atom_site_occupancy
H4   H   0.419659325589464   0.011425727263877   0.302276155863517   1.0
H5   H   0.590988979969566   0.087730683068500   0.445285540565450   1.0
H6   H   0.499017994000766   0.354946821451762   0.288898404913382   1.0
H7   H   0.364119949975532   0.047662752531416   0.675132224968451   1.0
H8   H   0.456303753521901   0.411221607584011   0.672154242870327   1.0
H9   H   0.274607872847220   0.353967994733466   0.512634249107549   1.0
C10   C   0.385870400176735   0.253275817189660   0.577815876061372   1.0
N12   N   0.479632893419890   0.170091820118351   0.392817131487497   1.0
