data_1
_audit_creation_method   'Generated by vasp2cif'
_cell_length_a    8.33319155876
_cell_length_b    4.64153623906
_cell_length_c    7.7536167513
_cell_angle_alpha    55.2271053677
_cell_angle_beta    102.127144357
_cell_angle_gamma    107.517774093
_symmetry_space_group_name_H-M    'P 1'
loop_
_atom_site_label
_atom_site_type_symbol
_atom_site_fract_x
_atom_site_fract_y
_atom_site_fract_z
_atom_site_occupancy
H4   H   0.611597870336107   0.527039097482600   0.561692642797614   1.0
H5   H   0.426845816301772   0.618566956439525   0.425045838588674   1.0
H6   H   0.432797618639737   0.353442815144660   0.691888969097253   1.0
H7   H   0.494891860535984   0.177937864459625   0.401819404859260   1.0
H8   H   0.507700292566260   0.898220479421503   0.684859102826041   1.0
H9   H   0.308870632756845   0.992234827192403   0.546951981665095   1.0
C10   C   0.445035981437983   0.094114654091983   0.546676220246087   1.0
N12   N   0.482208829454501   0.422998576462991   0.557235599541490   1.0
