data_1
_audit_creation_method   'Generated by vasp2cif'
_cell_length_a    6.23427004759
_cell_length_b    6.32379116981
_cell_length_c    6.56807892794
_cell_angle_alpha    87.9738602306
_cell_angle_beta    93.0634816566
_cell_angle_gamma    83.2485522845
_symmetry_space_group_name_H-M    'P 1'
loop_
_atom_site_label
_atom_site_type_symbol
_atom_site_fract_x
_atom_site_fract_y
_atom_site_fract_z
_atom_site_occupancy
C1   C   0.755018106483938   0.286914606718561   0.633230819823211   1.0
H2   H   0.850651125729271   0.173691209974486   0.359504084912295   1.0
H3   H   0.990793319382874   0.455323207814097   0.525593075214942   1.0
H4   H   0.514277499998087   0.158651518654679   0.777948401143775   1.0
H5   H   0.623461814123289   0.360738534312340   0.905276102216568   1.0
H6   H   0.886233080049500   0.541894933787844   0.752155110621260   1.0
H7   H   0.663930358929989   0.033946381185530   0.477115005499776   1.0
N11   N   0.747760237518108   0.161754604866729   0.472968860384782   1.0
N12   N   0.887811521021142   0.438712505870811   0.637494866273862   1.0
N13   N   0.629037106747781   0.259437661359947   0.788897947864896   1.0
