data_1
_audit_creation_method   'Generated by vasp2cif'
_cell_length_a    9.62625856783
_cell_length_b    4.35527552149
_cell_length_c    6.76654859956
_cell_angle_alpha    75.7025737281
_cell_angle_beta    97.1468211077
_cell_angle_gamma    116.914496051
_symmetry_space_group_name_H-M    'P 1'
loop_
_atom_site_label
_atom_site_type_symbol
_atom_site_fract_x
_atom_site_fract_y
_atom_site_fract_z
_atom_site_occupancy
C1   C   0.467448453716315   0.202995703273153   0.529236375702254   1.0
H2   H   0.373315178893733   0.341672586614088   0.729289838617504   1.0
H3   H   0.573000532882695   0.552048217563538   0.718631775917117   1.0
H4   H   0.601535651721456   0.127467281630544   0.348903462108012   1.0
H5   H   0.704767527762804   0.434951109725098   0.497597162910481   1.0
H6   H   0.228894057133978   0.948653988077673   0.513297646049637   1.0
H7   H   0.324435929866802   0.838306260807677   0.361800106845479   1.0
N11   N   0.470775317458099   0.404549926012898   0.654085699998767   1.0
N12   N   0.330637358636622   0.962369235143711   0.474158769029806   1.0
N13   N   0.601121584808510   0.242532561365266   0.462469016381320   1.0
