data_1
_audit_creation_method   'Generated by vasp2cif'
_cell_length_a    6.06405608853
_cell_length_b    6.23049846001
_cell_length_c    6.10631621535
_cell_angle_alpha    97.6208095149
_cell_angle_beta    87.1669147228
_cell_angle_gamma    93.3217346918
_symmetry_space_group_name_H-M    'P 1'
loop_
_atom_site_label
_atom_site_type_symbol
_atom_site_fract_x
_atom_site_fract_y
_atom_site_fract_z
_atom_site_occupancy
H4   H   0.346216774929239   0.494167659433593   0.375836555486423   1.0
H5   H   0.626553793337393   0.537515603510549   0.365856115663782   1.0
H6   H   0.470857405947434   0.666242206297078   0.580984868420323   1.0
H7   H   0.381008546044669   0.257422959435800   0.591995753568803   1.0
N9   N   0.486483244757466   0.525300504241613   0.470494306392240   1.0
