data_1
_audit_creation_method   'Generated by vasp2cif'
_cell_length_a    6.28171649196
_cell_length_b    4.4551843076
_cell_length_c    7.90631447564
_cell_angle_alpha    105.716342162
_cell_angle_beta    88.1256835497
_cell_angle_gamma    91.4198827817
_symmetry_space_group_name_H-M    'P 1'
loop_
_atom_site_label
_atom_site_type_symbol
_atom_site_fract_x
_atom_site_fract_y
_atom_site_fract_z
_atom_site_occupancy
H4   H   0.497343412821941   0.926208805417296   0.380424837256200   1.0
H5   H   0.629367097422232   0.954526021081520   0.571066684451395   1.0
H6   H   0.368288485582084   0.060752197927087   0.582728074202720   1.0
H7   H   0.282745760962797   0.555688457207971   0.445694860898385   1.0
N9   N   0.482946684606567   0.909170190042538   0.509944085288552   1.0
