data_1
_audit_creation_method   'Generated by vasp2cif'
_cell_length_a    7.92521904016
_cell_length_b    4.48419276064
_cell_length_c    6.28376378528
_cell_angle_alpha    88.5373887754
_cell_angle_beta    92.5914370126
_cell_angle_gamma    73.1641600527
_symmetry_space_group_name_H-M    'P 1'
loop_
_atom_site_label
_atom_site_type_symbol
_atom_site_fract_x
_atom_site_fract_y
_atom_site_fract_z
_atom_site_occupancy
H4   H   0.439681708297023   0.389015270756289   0.606079626269299   1.0
H5   H   0.629490071193402   0.223671476896257   0.479562797155744   1.0
H6   H   0.643484861822230   0.314309991022157   0.741571191881938   1.0
H7   H   0.496158038149026   0.957051708602151   0.817489274233921   1.0
N9   N   0.568867026179390   0.239431637798404   0.624412853106683   1.0
