data_1
_audit_creation_method   'Generated by vasp2cif'
_cell_length_a    6.21461476567
_cell_length_b    4.4103505067
_cell_length_c    8.02638146664
_cell_angle_alpha    105.327974336
_cell_angle_beta    87.1217339046
_cell_angle_gamma    92.9712778361
_symmetry_space_group_name_H-M    'P 1'
loop_
_atom_site_label
_atom_site_type_symbol
_atom_site_fract_x
_atom_site_fract_y
_atom_site_fract_z
_atom_site_occupancy
H4   H   0.452114763712082   0.129751639426608   0.489726337674604   1.0
H5   H   0.482461419341774   0.007715659181706   0.668890834462971   1.0
H6   H   0.225391435913245   0.051162711860918   0.610358934095274   1.0
H7   H   0.354497017525084   0.655236982993848   0.348070267086818   1.0
N9   N   0.382296143540586   0.991054214916893   0.565940243428528   1.0
