data_1
_audit_creation_method   'Generated by vasp2cif'
_cell_length_a    7.98995146573
_cell_length_b    4.4115896854
_cell_length_c    6.50332995018
_cell_angle_alpha    88.8391270417
_cell_angle_beta    78.401279251
_cell_angle_gamma    75.5454267246
_symmetry_space_group_name_H-M    'P 1'
loop_
_atom_site_label
_atom_site_type_symbol
_atom_site_fract_x
_atom_site_fract_y
_atom_site_fract_z
_atom_site_occupancy
H4   H   0.441742462755187   0.971137362951680   0.621277463682510   1.0
H5   H   0.622224124512577   0.124662319926330   0.551277084788879   1.0
H6   H   0.483230566724949   0.211833012258794   0.792008831244267   1.0
H7   H   0.610634805676078   0.796517366483670   0.910674180175711   1.0
N9   N   0.541637509892603   0.040727853333543   0.673836846117858   1.0
