data_1
_audit_creation_method   'Generated by vasp2cif'
_cell_length_a    6.61368725222
_cell_length_b    4.44459044841
_cell_length_c    7.94255090139
_cell_angle_alpha    104.581730344
_cell_angle_beta    102.106633521
_cell_angle_gamma    80.4710480967
_symmetry_space_group_name_H-M    'P 1'
loop_
_atom_site_label
_atom_site_type_symbol
_atom_site_fract_x
_atom_site_fract_y
_atom_site_fract_z
_atom_site_occupancy
H4   H   0.218984121948878   0.063132050311303   0.539888560750043   1.0
H5   H   0.464395971224782   0.079621498439167   0.665069690670144   1.0
H6   H   0.296855408205793   0.874642151561680   0.712616492181731   1.0
H7   H   0.312500142914210   0.570292479782466   0.418918079860696   1.0
N9   N   0.342644989238451   0.942246827999242   0.610940677949380   1.0
