data_1
_audit_creation_method   'Generated by vasp2cif'
_cell_length_a    8.09034884478
_cell_length_b    4.4079949186
_cell_length_c    6.29498273453
_cell_angle_alpha    88.834118075
_cell_angle_beta    92.4997258399
_cell_angle_gamma    73.7410832988
_symmetry_space_group_name_H-M    'P 1'
loop_
_atom_site_label
_atom_site_type_symbol
_atom_site_fract_x
_atom_site_fract_y
_atom_site_fract_z
_atom_site_occupancy
H4   H   0.556790402776443   0.517701235743523   0.303015414471503   1.0
H5   H   0.625028559663704   0.577186724005124   0.553306351338698   1.0
H6   H   0.462693217534621   0.326815995572154   0.685499957670523   1.0
H7   H   0.428559399500308   0.803815233655428   0.450617762626230   1.0
N9   N   0.516450288888876   0.581949317744417   0.455855072313021   1.0
