data_1
_audit_creation_method   'Generated by vasp2cif'
_cell_length_a    6.30273828678
_cell_length_b    6.34570062288
_cell_length_c    6.24380397407
_cell_angle_alpha    82.3369345777
_cell_angle_beta    85.8016424002
_cell_angle_gamma    87.0200302285
_symmetry_space_group_name_H-M    'P 1'
loop_
_atom_site_label
_atom_site_type_symbol
_atom_site_fract_x
_atom_site_fract_y
_atom_site_fract_z
_atom_site_occupancy
N5   N   0.095023970180925   0.750340259428789   0.864347090146985   1.0
N6   N   0.226820034797292   0.929742820306849   0.125071294023421   1.0
H7   H   0.215141569959194   0.636212973189700   0.870937740202343   1.0
H8   H   0.356449893229545   0.828704049245161   0.147482485759049   1.0
H9   H   0.980631788876636   0.743545832290259   0.758718428243299   1.0
H10   H   0.206726856758493   0.050820840839812   0.218057240950401   1.0
H11   H   0.950921158787047   0.019870400252152   0.972222896861290   1.0
C12   C   0.084881387733020   0.905009835505695   0.986462122012796   1.0
