data_1
_audit_creation_method   'Generated by vasp2cif'
_cell_length_a    6.8802546302
_cell_length_b    6.04120798322
_cell_length_c    6.04260166356
_cell_angle_alpha    93.4022586406
_cell_angle_beta    89.5676735276
_cell_angle_gamma    90.5434832646
_symmetry_space_group_name_H-M    'P 1'
loop_
_atom_site_label
_atom_site_type_symbol
_atom_site_fract_x
_atom_site_fract_y
_atom_site_fract_z
_atom_site_occupancy
N5   N   0.175057508410788   0.852169671328511   0.146429681782479   1.0
N6   N   0.837248938976209   0.841231356753454   0.160949912270944   1.0
H7   H   0.191779718281751   0.737821102808027   0.261618753618997   1.0
H8   H   0.830649370839673   0.726110494897462   0.277248834510956   1.0
H9   H   0.296628853966098   0.917404522403189   0.078151529269661   1.0
H10   H   0.710108075958132   0.899281050280756   0.104085952557405   1.0
H11   H   0.996756872064026   0.039308238528449   0.959000926472825   1.0
C12   C   0.002672326828368   0.916401075482405   0.083200905289324   1.0
