data_1
_audit_creation_method   'Generated by vasp2cif'
_cell_length_a    6.24784837329
_cell_length_b    6.44567283708
_cell_length_c    6.43789902934
_cell_angle_alpha    99.6636652587
_cell_angle_beta    95.844460745
_cell_angle_gamma    79.067012865
_symmetry_space_group_name_H-M    'P 1'
loop_
_atom_site_label
_atom_site_type_symbol
_atom_site_fract_x
_atom_site_fract_y
_atom_site_fract_z
_atom_site_occupancy
N5   N   0.900355872980654   0.713777612392668   0.959027119846660   1.0
N6   N   0.197261910842826   0.829038586281413   0.670362845764885   1.0
H7   H   0.097418892738375   0.787811711753079   0.769556900661833   1.0
H8   H   0.102453714972604   0.926890615500199   0.573303234475958   1.0
H9   H   0.845848006671311   0.575319580185003   0.969231237489993   1.0
H10   H   0.303979543212705   0.916861304642929   0.760111118875130   1.0
H11   H   0.863209285915275   0.038865275082713   0.062496039549707   1.0
C12   C   0.815868596742533   0.885163257771936   0.064076609199631   1.0
