data_1
_audit_creation_method   'Generated by vasp2cif'
_cell_length_a    6.79657754049
_cell_length_b    6.74930275515
_cell_length_c    6.63215201333
_cell_angle_alpha    89.692162316
_cell_angle_beta    91.521098304
_cell_angle_gamma    89.6003696623
_symmetry_space_group_name_H-M    'P 1'
loop_
_atom_site_label
_atom_site_type_symbol
_atom_site_fract_x
_atom_site_fract_y
_atom_site_fract_z
_atom_site_occupancy
C1   C   0.316281965405182   0.361257217361498   0.479703476848655   1.0
C2   C   0.590163005308021   0.522395807548207   0.299512625881768   1.0
C3   C   0.587422396238331   0.524212341533250   0.672797860327321   1.0
C4   C   0.345518290053455   0.726890764425946   0.477389912770192   1.0
H5   H   0.450528972331121   0.848244551191819   0.479891625950430   1.0
H6   H   0.254141813629467   0.731699412617374   0.340443430818347   1.0
H7   H   0.226196648783834   0.370668117047579   0.341833127816230   1.0
H8   H   0.496554476760089   0.531729458114924   0.163775152469505   1.0
H9   H   0.491875463772736   0.535202864885129   0.801727896264055   1.0
H10   H   0.688301547821247   0.648396855585084   0.669259694498727   1.0
H11   H   0.691633347769617   0.646443409510418   0.306740704278198   1.0
H12   H   0.255098771437048   0.730802392402794   0.610011599024133   1.0
H13   H   0.667924087750649   0.384213274537508   0.675690394793449   1.0
H14   H   0.400415304866492   0.223241174283714   0.485158309560695   1.0
H15   H   0.670788563027372   0.382243238686257   0.305125401349258   1.0
H16   H   0.225319440582247   0.374228664566658   0.611629379501757   1.0
N20   N   0.459757533299303   0.532891807790470   0.481691279093845   1.0
