data_1
_audit_creation_method   'Generated by vasp2cif'
_cell_length_a    7.36330642686
_cell_length_b    5.16401349661
_cell_length_c    8.35199925032
_cell_angle_alpha    90.3299265671
_cell_angle_beta    90.6474143112
_cell_angle_gamma    85.8988662675
_symmetry_space_group_name_H-M    'P 1'
loop_
_atom_site_label
_atom_site_type_symbol
_atom_site_fract_x
_atom_site_fract_y
_atom_site_fract_z
_atom_site_occupancy
C1   C   0.437088674636321   0.371234294557311   0.479407139413262   1.0
C2   C   0.555576037842826   0.735854383087158   0.632631924358989   1.0
C3   C   0.362856696905268   0.430634954550861   0.768422977868561   1.0
C4   C   0.225092234857009   0.736618849581475   0.566191115337816   1.0
H5   H   0.247950722188371   0.827769140208119   0.451624067371654   1.0
H6   H   0.197296186287616   0.880607302468810   0.660202419434484   1.0
H7   H   0.457729869954967   0.475190938517741   0.368612251197391   1.0
H8   H   0.579333246279703   0.828262055376811   0.518500799091690   1.0
H9   H   0.251777436084772   0.305178967266144   0.749910300599886   1.0
H10   H   0.326007905026842   0.576302037992072   0.859621968920635   1.0
H11   H   0.522801526695943   0.878516779371132   0.726291200250500   1.0
H12   H   0.111577069348272   0.612827710793219   0.555508618690880   1.0
H13   H   0.488167899080935   0.320011538927204   0.803947128562498   1.0
H14   H   0.560912881418609   0.255580341642094   0.512359216936900   1.0
H15   H   0.674548554671887   0.611123538354143   0.668375469360065   1.0
H16   H   0.321201238412854   0.253260278842014   0.465532092916121   1.0
N20   N   0.395125568990245   0.568457897441490   0.611920350533637   1.0
