data_1
_audit_creation_method   'Generated by vasp2cif'
_cell_length_a    6.23717508738
_cell_length_b    6.07474862519
_cell_length_c    6.19787309911
_cell_angle_alpha    89.1125976692
_cell_angle_beta    84.2878963041
_cell_angle_gamma    88.4710864547
_symmetry_space_group_name_H-M    'P 1'
loop_
_atom_site_label
_atom_site_type_symbol
_atom_site_fract_x
_atom_site_fract_y
_atom_site_fract_z
_atom_site_occupancy
H4   H   0.272472869117834   0.561584720623301   0.564771690723965   1.0
H5   H   0.485612053011245   0.651846017998921   0.413526689435692   1.0
H6   H   0.498128692881323   0.355983922479275   0.779033059004625   1.0
H7   H   0.711448955937229   0.452212450754367   0.628987201461371   1.0
H8   H   0.551019765147117   0.627367658482825   0.786324715806089   1.0
N10   N   0.425202826061017   0.517413832691140   0.499664096255856   1.0
N11   N   0.554006779479330   0.490340915482719   0.686245807572817   1.0
