data_1
_audit_creation_method   'Generated by vasp2cif'
_cell_length_a    4.28216974695
_cell_length_b    6.52967557064
_cell_length_c    8.29517575006
_cell_angle_alpha    96.1571695663
_cell_angle_beta    107.980531938
_cell_angle_gamma    88.0857626725
_symmetry_space_group_name_H-M    'P 1'
loop_
_atom_site_label
_atom_site_type_symbol
_atom_site_fract_x
_atom_site_fract_y
_atom_site_fract_z
_atom_site_occupancy
H4   H   0.309809444209016   0.525780951696646   0.482548658804383   1.0
H5   H   0.392993842201783   0.708956853683794   0.643517182828056   1.0
H6   H   0.978395340671483   0.494420300596936   0.665485883748040   1.0
H7   H   0.229531146211848   0.290506328155686   0.655632331394187   1.0
H8   H   0.334679497417476   0.468281943265801   0.824677829616725   1.0
N10   N   0.423204207899303   0.554558639731020   0.611715585039782   1.0
N11   N   0.222815354889725   0.446667702704829   0.693523852141190   1.0
