data_1
_audit_creation_method   'Generated by vasp2cif'
_cell_length_a    8.41407148941
_cell_length_b    6.0850439732
_cell_length_c    6.13637269636
_cell_angle_alpha    89.698934748
_cell_angle_beta    47.9736830846
_cell_angle_gamma    93.3767597443
_symmetry_space_group_name_H-M    'P 1'
loop_
_atom_site_label
_atom_site_type_symbol
_atom_site_fract_x
_atom_site_fract_y
_atom_site_fract_z
_atom_site_occupancy
H4   H   0.538272280429581   0.667885516791216   0.141175028664001   1.0
H5   H   0.424028402574947   0.641543608201189   0.004066938394423   1.0
H6   H   0.750230596836346   0.385292280105858   0.875561567001348   1.0
H7   H   0.625343559413068   0.334677917138727   0.750946353455760   1.0
H8   H   0.786575548345475   0.569228309436028   0.638647477445367   1.0
N10   N   0.482595735740489   0.554407577403325   0.077734353832618   1.0
N11   N   0.674195763031655   0.457225043729970   0.816617007318420   1.0
