data_1
_audit_creation_method   'Generated by vasp2cif'
_cell_length_a    4.25270846335
_cell_length_b    6.65475920178
_cell_length_c    8.30455407831
_cell_angle_alpha    83.9300389183
_cell_angle_beta    105.74096209
_cell_angle_gamma    103.951945589
_symmetry_space_group_name_H-M    'P 1'
loop_
_atom_site_label
_atom_site_type_symbol
_atom_site_fract_x
_atom_site_fract_y
_atom_site_fract_z
_atom_site_occupancy
H4   H   0.255420276878212   0.463917975825588   0.498267968914988   1.0
H5   H   0.265774877604855   0.680446578564755   0.379856384362803   1.0
H6   H   0.596770170971872   0.480903391031298   0.308795419412732   1.0
H7   H   0.258207697793175   0.281325997885816   0.276472189981213   1.0
H8   H   0.249964099022762   0.494969280450896   0.150458612429276   1.0
N10   N   0.169242820179669   0.523005895310725   0.379074108064309   1.0
N11   N   0.335511231833045   0.441287704956046   0.273228294408511   1.0
