data_1
_audit_creation_method   'Generated by vasp2cif'
_cell_length_a    8.13443326358
_cell_length_b    6.68392519905
_cell_length_c    4.42767183045
_cell_angle_alpha    102.004876581
_cell_angle_beta    76.1688750033
_cell_angle_gamma    101.618176833
_symmetry_space_group_name_H-M    'P 1'
loop_
_atom_site_label
_atom_site_type_symbol
_atom_site_fract_x
_atom_site_fract_y
_atom_site_fract_z
_atom_site_occupancy
H4   H   0.498571629423928   0.480457355308367   0.136355441994049   1.0
H5   H   0.623494621174252   0.704481184556819   0.078828001099637   1.0
H6   H   0.790739545252578   0.425118405111874   0.927691832432480   1.0
H7   H   0.658316166385163   0.313430424366871   0.674724860051562   1.0
H8   H   0.786913530677964   0.540857902403253   0.629407466098833   1.0
N10   N   0.568709428054966   0.565744727839409   0.966837243586532   1.0
N11   N   0.710457852275439   0.453177503370007   0.794446729609135   1.0
