data_1
_audit_creation_method   'Generated by vasp2cif'
_cell_length_a    8.00286856779
_cell_length_b    6.5341665421
_cell_length_c    4.50832488906
_cell_angle_alpha    87.9615617616
_cell_angle_beta    74.0873819359
_cell_angle_gamma    88.5736139863
_symmetry_space_group_name_H-M    'P 1'
loop_
_atom_site_label
_atom_site_type_symbol
_atom_site_fract_x
_atom_site_fract_y
_atom_site_fract_z
_atom_site_occupancy
H4   H   0.521190897711278   0.484036893340580   0.931750298015203   1.0
H5   H   0.389954238491903   0.688243480011764   0.014891700876802   1.0
H6   H   0.228622875031029   0.373424374211254   0.133692295624435   1.0
H7   H   0.352824127586466   0.312045129473638   0.374810571195070   1.0
H8   H   0.214726985376643   0.514915312449098   0.439263864292194   1.0
N10   N   0.444344804184915   0.567226413490921   0.108665657961630   1.0
N11   N   0.301050419336178   0.432495230042356   0.269398505461652   1.0
