data_1
_audit_creation_method   'Generated by vasp2cif'
_cell_length_a    8.44627475041
_cell_length_b    4.25657171824
_cell_length_c    6.29832268105
_cell_angle_alpha    90.8490479877
_cell_angle_beta    89.5540958184
_cell_angle_gamma    74.116420861
_symmetry_space_group_name_H-M    'P 1'
loop_
_atom_site_label
_atom_site_type_symbol
_atom_site_fract_x
_atom_site_fract_y
_atom_site_fract_z
_atom_site_occupancy
H4   H   0.527007998414405   0.526598898908375   0.670570816233280   1.0
H5   H   0.477432510625547   0.557694233931748   0.418308126093038   1.0
H6   H   0.782651905530713   0.594571638739531   0.597866255845986   1.0
H7   H   0.744681752785262   0.602334509308193   0.335616216568788   1.0
H8   H   0.639560426121371   0.916448663350018   0.496934420780008   1.0
N10   N   0.573518980374502   0.466632933649350   0.519411135668761   1.0
N11   N   0.690744873258517   0.664039817721203   0.485544100941652   1.0
