data_1
_audit_creation_method   'Generated by vasp2cif'
_cell_length_a    8.14686883531
_cell_length_b    4.28235927996
_cell_length_c    6.51347097278
_cell_angle_alpha    89.6851982296
_cell_angle_beta    94.8428616594
_cell_angle_gamma    76.373731152
_symmetry_space_group_name_H-M    'P 1'
loop_
_atom_site_label
_atom_site_type_symbol
_atom_site_fract_x
_atom_site_fract_y
_atom_site_fract_z
_atom_site_occupancy
H4   H   0.469484008724414   0.786785249199532   0.496284913714227   1.0
H5   H   0.601533843858945   0.741258672342674   0.707390005960441   1.0
H6   H   0.647059190741693   0.264310032437315   0.502090646781127   1.0
H7   H   0.701937490786037   0.489861828620320   0.316622400381121   1.0
H8   H   0.815767622473224   0.426824232626572   0.544669737602106   1.0
N10   N   0.593817171098898   0.771949678820491   0.549790433305901   1.0
N11   N   0.693555681949874   0.466354803545805   0.474031666215311   1.0
