data_1
_audit_creation_method   'Generated by vasp2cif'
_cell_length_a    8.10075985322
_cell_length_b    6.55868346406
_cell_length_c    4.64926816308
_cell_angle_alpha    91.3592912651
_cell_angle_beta    105.672661702
_cell_angle_gamma    71.4029104443
_symmetry_space_group_name_H-M    'P 1'
loop_
_atom_site_label
_atom_site_type_symbol
_atom_site_fract_x
_atom_site_fract_y
_atom_site_fract_z
_atom_site_occupancy
H4   H   0.525394507999636   0.529312664664729   0.487131740054110   1.0
H5   H   0.454690628507826   0.621008838042300   0.778416370032957   1.0
H6   H   0.206691883021833   0.582844565771062   0.417249122553848   1.0
H7   H   0.335309208490671   0.325743119938714   0.375476231902574   1.0
H8   H   0.273528217023454   0.385564035751976   0.690328539913544   1.0
N10   N   0.485114227777856   0.485406939871098   0.660832728647648   1.0
N11   N   0.312234834300519   0.445681995195372   0.524644556207640   1.0
