data_1
_audit_creation_method   'Generated by vasp2cif'
_cell_length_a    8.41508297605
_cell_length_b    4.23999142885
_cell_length_c    6.25043958556
_cell_angle_alpha    90.712458766
_cell_angle_beta    90.7421526073
_cell_angle_gamma    76.8071828189
_symmetry_space_group_name_H-M    'P 1'
loop_
_atom_site_label
_atom_site_type_symbol
_atom_site_fract_x
_atom_site_fract_y
_atom_site_fract_z
_atom_site_occupancy
H4   H   0.564356064798247   0.463247148440210   0.650002065939987   1.0
H5   H   0.571159765681664   0.456050078104255   0.386876977570140   1.0
H6   H   0.297736435209338   0.774440124105162   0.637460668119083   1.0
H7   H   0.424261550961596   0.970585944684991   0.510746034627090   1.0
H8   H   0.305096371849238   0.766846520552292   0.368307991032445   1.0
N10   N   0.495398248143545   0.452190398414359   0.514124496083433   1.0
N11   N   0.374476202631129   0.766353988455180   0.507470343734404   1.0
