data_1
_audit_creation_method   'Generated by vasp2cif'
_cell_length_a    6.53506228387
_cell_length_b    4.30286230017
_cell_length_c    8.13945645255
_cell_angle_alpha    103.774167118
_cell_angle_beta    85.7741376044
_cell_angle_gamma    85.0297279544
_symmetry_space_group_name_H-M    'P 1'
loop_
_atom_site_label
_atom_site_type_symbol
_atom_site_fract_x
_atom_site_fract_y
_atom_site_fract_z
_atom_site_occupancy
H4   H   0.497265974372233   0.898231789635133   0.378826337798017   1.0
H5   H   0.307839882908127   0.997198084360413   0.533744771284972   1.0
H6   H   0.721832733559921   0.161774006717543   0.549428516354126   1.0
H7   H   0.511476439560106   0.426875896597444   0.562308450041229   1.0
H8   H   0.546089302128742   0.238800319890089   0.720956216299037   1.0
N10   N   0.463657503134414   0.928541126439818   0.507491402590787   1.0
N11   N   0.565262439278499   0.211289832121423   0.589680039417743   1.0
