data_1
_audit_creation_method   'Generated by vasp2cif'
_cell_length_a    7.85998395979
_cell_length_b    7.01525006397
_cell_length_c    4.53063502125
_cell_angle_alpha    73.1895697889
_cell_angle_beta    106.04307412
_cell_angle_gamma    112.924194146
_symmetry_space_group_name_H-M    'P 1'
loop_
_atom_site_label
_atom_site_type_symbol
_atom_site_fract_x
_atom_site_fract_y
_atom_site_fract_z
_atom_site_occupancy
N5   N   0.453561183138049   0.430466779228851   0.784517024007997   1.0
H6   H   0.336890737025278   0.397510298224944   0.607825380533427   1.0
H7   H   0.444246838492901   0.295501964275871   0.957691023233835   1.0
H8   H   0.573747511157862   0.469756734035748   0.694385079876355   1.0
H9   H   0.459994279774420   0.553198886303967   0.876114475388285   1.0
