data_1
_audit_creation_method   'Generated by vasp2cif'
_cell_length_a    6.24090532492
_cell_length_b    6.23888305638
_cell_length_c    6.25475483707
_cell_angle_alpha    82.7040935116
_cell_angle_beta    82.7350139598
_cell_angle_gamma    82.9223527274
_symmetry_space_group_name_H-M    'P 1'
loop_
_atom_site_label
_atom_site_type_symbol
_atom_site_fract_x
_atom_site_fract_y
_atom_site_fract_z
_atom_site_occupancy
N5   N   0.526419309392118   0.527039948148179   0.579815110007566   1.0
H6   H   0.382394321921716   0.621385363334440   0.547110547765982   1.0
H7   H   0.492485766875106   0.384725759702711   0.677360955883380   1.0
H8   H   0.617605636646317   0.489929828560804   0.435608646714741   1.0
H9   H   0.615088185660788   0.613870452056510   0.660376569287457   1.0
