data_1
_audit_creation_method   'Generated by vasp2cif'
_cell_length_a    4.57314641981
_cell_length_b    7.11226624163
_cell_length_c    7.78394185547
_cell_angle_alpha    67.2191900449
_cell_angle_beta    72.771089281
_cell_angle_gamma    71.326024411
_symmetry_space_group_name_H-M    'P 1'
loop_
_atom_site_label
_atom_site_type_symbol
_atom_site_fract_x
_atom_site_fract_y
_atom_site_fract_z
_atom_site_occupancy
N5   N   0.811510064149552   0.467972297248281   0.548201678057175   1.0
H6   H   0.626667969241495   0.440087783866787   0.662295044785871   1.0
H7   H   0.992990836596888   0.335076912492653   0.566910167767510   1.0
H8   H   0.737681174156570   0.498058344318437   0.423993213904438   1.0
H9   H   0.888352746071050   0.593965711094789   0.540936528563734   1.0
