data_1
_audit_creation_method   'Generated by vasp2cif'
_cell_length_a    6.38015582484
_cell_length_b    6.55293336817
_cell_length_c    6.91102357842
_cell_angle_alpha    89.9621983421
_cell_angle_beta    90.0665942004
_cell_angle_gamma    99.5861441946
_symmetry_space_group_name_H-M    'P 1'
loop_
_atom_site_label
_atom_site_type_symbol
_atom_site_fract_x
_atom_site_fract_y
_atom_site_fract_z
_atom_site_occupancy
C1   C   0.623247774068346   0.333560589749297   0.473594944478492   1.0
C2   C   0.382110135605600   0.533244126370207   0.654280737261608   1.0
C3   C   0.394241768707232   0.547091107825359   0.295653678168854   1.0
H4   H   0.716324849535845   0.329884935626090   0.605211452202553   1.0
H5   H   0.477621742232223   0.522648478594505   0.783389364262050   1.0
H6   H   0.498517728627569   0.547383700191006   0.171054444319630   1.0
H7   H   0.331269057405443   0.691298002582833   0.304156538697917   1.0
H8   H   0.320369568834820   0.678422702896874   0.651959798023825   1.0
H9   H   0.643512087750899   0.652515429720388   0.483541507830971   1.0
H10   H   0.265269676438365   0.415377261998159   0.289717376357075   1.0
H11   H   0.497113993304595   0.199207499047191   0.466015766904796   1.0
H12   H   0.252838463330598   0.401873790222595   0.645888945420324   1.0
H13   H   0.724516543643396   0.341677907696535   0.346289369176524   1.0
N17   N   0.521086892946101   0.526430997624288   0.477761542969823   1.0
