data_1
_audit_creation_method   'Generated by vasp2cif'
_cell_length_a    6.46766802464
_cell_length_b    6.53518466083
_cell_length_c    6.85386885466
_cell_angle_alpha    93.0931601845
_cell_angle_beta    87.56768264
_cell_angle_gamma    81.8599259435
_symmetry_space_group_name_H-M    'P 1'
loop_
_atom_site_label
_atom_site_type_symbol
_atom_site_fract_x
_atom_site_fract_y
_atom_site_fract_z
_atom_site_occupancy
C1   C   0.360465740394744   0.328229543195675   0.488044427166130   1.0
C2   C   0.551412845243100   0.586029205642042   0.325372251792977   1.0
C3   C   0.636591828092698   0.488667489486396   0.661921647245741   1.0
H4   H   0.230622664148520   0.364758951875281   0.393490402713994   1.0
H5   H   0.423302694503448   0.614552394351307   0.227920721668376   1.0
H6   H   0.567416716485099   0.453477292932199   0.801515177759036   1.0
H7   H   0.705606994187903   0.630589193724276   0.676187039739972   1.0
H8   H   0.620655319648023   0.726321130848397   0.354968555960070   1.0
H9   H   0.352619091780248   0.638298240141793   0.572573055947331   1.0
H10   H   0.752885495562751   0.359855219348603   0.604221437460041   1.0
H11   H   0.474873773344299   0.204102944863045   0.418948177463811   1.0
H12   H   0.669922980083577   0.461797521705350   0.262837135196072   1.0
H13   H   0.304664698154760   0.287150193310737   0.630394719626878   1.0
N17   N   0.466474077991336   0.519176937559017   0.517120157508892   1.0
