data_1
_audit_creation_method   'Generated by vasp2cif'
_cell_length_a    6.64012136598
_cell_length_b    6.68067458325
_cell_length_c    6.79764853349
_cell_angle_alpha    78.0074591306
_cell_angle_beta    87.0185831654
_cell_angle_gamma    92.6130321114
_symmetry_space_group_name_H-M    'P 1'
loop_
_atom_site_label
_atom_site_type_symbol
_atom_site_fract_x
_atom_site_fract_y
_atom_site_fract_z
_atom_site_occupancy
C1   C   0.728507351385694   0.499545828181738   0.563912500702855   1.0
C2   C   0.414277577334630   0.681249965352841   0.605531753946892   1.0
C3   C   0.444677244867769   0.468754491699471   0.343479665082505   1.0
H4   H   0.800371700498495   0.601671756267876   0.647889163209022   1.0
H5   H   0.352934855460852   0.548341307937442   0.717795083761011   1.0
H6   H   0.378055985159790   0.335505569560397   0.452224089358452   1.0
H7   H   0.552471943997702   0.421648662298509   0.238126820402904   1.0
H8   H   0.499637518266866   0.786226264346865   0.677705402256976   1.0
H9   H   0.616384430460435   0.733600411955045   0.354600814950871   1.0
H10   H   0.327370396064865   0.554123338673911   0.262861133260323   1.0
H11   H   0.664977389303665   0.360146207085286   0.665161755697575   1.0
H12   H   0.293711064909402   0.759341491337352   0.523474375760273   1.0
H13   H   0.834419993608236   0.463613787438945   0.450676573075775   1.0
N17   N   0.555909356225655   0.606351895583700   0.458094336091619   1.0
