data_1
_audit_creation_method   'Generated by vasp2cif'
_cell_length_a    6.68843313627
_cell_length_b    6.73326722292
_cell_length_c    6.69547014975
_cell_angle_alpha    96.0062156008
_cell_angle_beta    97.8404708204
_cell_angle_gamma    95.881505313
_symmetry_space_group_name_H-M    'P 1'
loop_
_atom_site_label
_atom_site_type_symbol
_atom_site_fract_x
_atom_site_fract_y
_atom_site_fract_z
_atom_site_occupancy
C1   C   0.590995878507215   0.667729513620642   0.390988584097002   1.0
C2   C   0.332174871587462   0.692095478929296   0.626196706014014   1.0
C3   C   0.555535100774875   0.417047069027191   0.637292899063496   1.0
H4   H   0.665653078743333   0.560744715122993   0.302588501980324   1.0
H5   H   0.253294679052175   0.783915364946665   0.524346310976789   1.0
H6   H   0.627271509611440   0.313316940735689   0.541982638276167   1.0
H7   H   0.445429458481577   0.335508375028745   0.713421694910430   1.0
H8   H   0.224002319055764   0.601865934835793   0.697660072200947   1.0
H9   H   0.339472633761822   0.462128309785939   0.396831710419541   1.0
H10   H   0.669932961021182   0.512788047921283   0.747462231264130   1.0
H11   H   0.504821966120147   0.757060877835585   0.291855716954508   1.0
H12   H   0.443367283096464   0.786011920627210   0.741140785262516   1.0
H13   H   0.701877231325483   0.765147334447676   0.503379154783119   1.0
N17   N   0.445499478138046   0.551885959382020   0.503721367211703   1.0
