data_1
_audit_creation_method   'Generated by vasp2cif'
_cell_length_a    4.95348354572
_cell_length_b    8.15167015822
_cell_length_c    7.71182278272
_cell_angle_alpha    104.290185284
_cell_angle_beta    75.2386613831
_cell_angle_gamma    89.2510423144
_symmetry_space_group_name_H-M    'P 1'
loop_
_atom_site_label
_atom_site_type_symbol
_atom_site_fract_x
_atom_site_fract_y
_atom_site_fract_z
_atom_site_occupancy
C1   C   0.473322455237088   0.575831533565477   0.391815105223380   1.0
C2   C   0.734906806311031   0.776456411072139   0.578026487850551   1.0
C3   C   0.716285358152646   0.474475675470025   0.596470838091285   1.0
H4   H   0.363781249391835   0.686411275895587   0.377326161022154   1.0
H5   H   0.913892036682277   0.745572268617728   0.456396088253243   1.0
H6   H   0.578571485778312   0.371591168859588   0.600228730029741   1.0
H7   H   0.776814089725718   0.513589739563457   0.726083963229435   1.0
H8   H   0.606272013277142   0.884428560263281   0.575024994380037   1.0
H9   H   0.385218604763509   0.658408365412491   0.682594554151912   1.0
H10   H   0.900430926957121   0.435336648329681   0.478767893738912   1.0
H11   H   0.660752251100043   0.536583863339366   0.276253750756489   1.0
H12   H   0.800291604130564   0.803197470741587   0.706209012607722   1.0
H13   H   0.341734382149802   0.470213868687423   0.396471842647074   1.0
N17   N   0.562371633560581   0.624164701672193   0.570337163574969   1.0
