data_1
_audit_creation_method   'Generated by vasp2cif'
_cell_length_a    6.61013480281
_cell_length_b    5.00827176021
_cell_length_c    8.90492316375
_cell_angle_alpha    91.9007213288
_cell_angle_beta    83.4601782638
_cell_angle_gamma    82.1495322114
_symmetry_space_group_name_H-M    'P 1'
loop_
_atom_site_label
_atom_site_type_symbol
_atom_site_fract_x
_atom_site_fract_y
_atom_site_fract_z
_atom_site_occupancy
C1   C   0.292887568397248   0.520044487125006   0.476116160301665   1.0
C2   C   0.571850576785081   0.801989472076102   0.500848458927969   1.0
C3   C   0.533394179218398   0.434472533859051   0.675725557614093   1.0
H4   H   0.204840875933947   0.684433572841840   0.423784721911773   1.0
H5   H   0.487139064604094   0.961767634350799   0.443583932333517   1.0
H6   H   0.423554758321949   0.317236814341989   0.733811511716134   1.0
H7   H   0.605992604555070   0.541112060904737   0.758472365288419   1.0
H8   H   0.661757573664957   0.881734271353714   0.582575611331507   1.0
H9   H   0.317909760252029   0.773419772802313   0.659150584811194   1.0
H10   H   0.649279495908182   0.308294994581289   0.598127421486979   1.0
H11   H   0.396284170472782   0.394084851256593   0.389452079462721   1.0
H12   H   0.671850783747473   0.665541623883186   0.417519445520796   1.0
H13   H   0.189816809146549   0.402322582348077   0.540826370043625   1.0
N17   N   0.420645736747481   0.641775239648204   0.584040288334585   1.0
