data_1
_audit_creation_method   'Generated by vasp2cif'
_cell_length_a    6.42578728951
_cell_length_b    4.79140325666
_cell_length_c    9.37344361443
_cell_angle_alpha    93.5704179544
_cell_angle_beta    83.4079822356
_cell_angle_gamma    85.5731700424
_symmetry_space_group_name_H-M    'P 1'
loop_
_atom_site_label
_atom_site_type_symbol
_atom_site_fract_x
_atom_site_fract_y
_atom_site_fract_z
_atom_site_occupancy
C1   C   0.314987940328052   0.562299707908629   0.492267303998780   1.0
C2   C   0.623683772663071   0.846181329876721   0.492529370637101   1.0
C3   C   0.557803448459666   0.522907404470722   0.685536009207176   1.0
H4   H   0.233855424193003   0.718854158738786   0.433861428574865   1.0
H5   H   0.548365388051877   0.993124552377765   0.426530666526922   1.0
H6   H   0.436700199262752   0.416969307786367   0.747030745758536   1.0
H7   H   0.636582778446531   0.653221011770043   0.758161839751232   1.0
H8   H   0.722927565973350   0.948655551536561   0.562740020276621   1.0
H9   H   0.359190278055159   0.865366706731407   0.649398652811357   1.0
H10   H   0.672319050121182   0.373945058946347   0.620716035447444   1.0
H11   H   0.412606823674636   0.412491858832816   0.415701873307249   1.0
H12   H   0.716751219323406   0.680187418161317   0.422906873792037   1.0
H13   H   0.202549295979175   0.458085416431480   0.562126099531469   1.0
N17   N   0.456417423305794   0.711401730267276   0.584877185243769   1.0
