data_1
_audit_creation_method   'Generated by vasp2cif'
_cell_length_a    7.05822661273
_cell_length_b    4.89813882651
_cell_length_c    8.47735821903
_cell_angle_alpha    89.8945375521
_cell_angle_beta    95.7090240102
_cell_angle_gamma    75.7865477625
_symmetry_space_group_name_H-M    'P 1'
loop_
_atom_site_label
_atom_site_type_symbol
_atom_site_fract_x
_atom_site_fract_y
_atom_site_fract_z
_atom_site_occupancy
C1   C   0.522036535982295   0.875752759641053   0.413349769368246   1.0
C2   C   0.431586841861545   0.917705385949219   0.693577440250849   1.0
C3   C   0.285172846036048   0.619211452893879   0.504773982750848   1.0
H4   H   0.573584444441849   0.066812027729327   0.429304735700093   1.0
H5   H   0.309636796391445   0.929614930170949   0.764083058561930   1.0
H6   H   0.235095310042738   0.599196538707318   0.380656242875183   1.0
H7   H   0.165134417343481   0.637235220809288   0.578976239784424   1.0
H8   H   0.551704986935974   0.735541217493420   0.729914640296499   1.0
H9   H   0.243550220817255   0.047572326833311   0.484160072351457   1.0
H10   H   0.407721292368031   0.442996686426703   0.545190120753702   1.0
H11   H   0.642229857226965   0.691509032149085   0.446840649846088   1.0
H12   H   0.483424844837195   0.108834147263124   0.703896301167767   1.0
H13   H   0.460953972681431   0.863745744525218   0.291074851398505   1.0
N17   N   0.361958303628612   0.881066159874699   0.521549634095543   1.0
