data_1
_audit_creation_method   'Generated by vasp2cif'
_cell_length_a    6.68965710817
_cell_length_b    6.32993974277
_cell_length_c    6.34122293332
_cell_angle_alpha    90.8008542267
_cell_angle_beta    86.5218409258
_cell_angle_gamma    89.0424238048
_symmetry_space_group_name_H-M    'P 1'
loop_
_atom_site_label
_atom_site_type_symbol
_atom_site_fract_x
_atom_site_fract_y
_atom_site_fract_z
_atom_site_occupancy
H4   H   0.389384792400847   0.834108814622773   0.587275990707042   1.0
H5   H   0.641564477318084   0.569857713920030   0.289109885720329   1.0
H6   H   0.640713588687774   0.840161057313537   0.548218735203370   1.0
H7   H   0.352561200958121   0.324362671091002   0.587492308033042   1.0
H8   H   0.689155138544663   0.569057477332308   0.787887679305634   1.0
H9   H   0.426648931964877   0.590592646007728   0.863033372258769   1.0
H10   H   0.373202115541986   0.592347771879759   0.304520490515117   1.0
H11   H   0.615469896675052   0.275195593442291   0.542997050218830   1.0
C12   C   0.538304393120647   0.568404095368471   0.732582325045435   1.0
C13   C   0.505970091714786   0.569267708632196   0.392794916223522   1.0
C14   C   0.498833221960652   0.397039131584144   0.564248216378566   1.0
N16   N   0.518727388329800   0.742958870994293   0.565878282151772   1.0
