data_1
_audit_creation_method   'Generated by vasp2cif'
_cell_length_a    6.39138849857
_cell_length_b    6.36248087659
_cell_length_c    6.55482715132
_cell_angle_alpha    95.1856586974
_cell_angle_beta    83.3384655828
_cell_angle_gamma    91.6499307212
_symmetry_space_group_name_H-M    'P 1'
loop_
_atom_site_label
_atom_site_type_symbol
_atom_site_fract_x
_atom_site_fract_y
_atom_site_fract_z
_atom_site_occupancy
H4   H   0.521815889317509   0.858834907956329   0.313558202073054   1.0
H5   H   0.685043747580018   0.686417503132667   0.656152286584842   1.0
H6   H   0.421243577564937   0.893781378182304   0.561785792781016   1.0
H7   H   0.500290271746486   0.305293384754869   0.426152977389222   1.0
H8   H   0.159853303982004   0.633322127716042   0.492458962012726   1.0
H9   H   0.308752696266112   0.556824307559538   0.249273107268898   1.0
H10   H   0.759376700713752   0.602351978534195   0.389388128325805   1.0
H11   H   0.392249229741935   0.421543482042644   0.672484782124315   1.0
C12   C   0.315171206073948   0.595577259585831   0.413683663131948   1.0
C13   C   0.629387501264858   0.627680010833153   0.510990943447517   1.0
C14   C   0.456163526991865   0.452625686448023   0.516398708724495   1.0
N16   N   0.473183027903630   0.782626293855948   0.443797293345824   1.0
