data_1
_audit_creation_method   'Generated by vasp2cif'
_cell_length_a    6.4594869678
_cell_length_b    6.37390778998
_cell_length_c    6.48733537991
_cell_angle_alpha    86.6285277206
_cell_angle_beta    83.4705372024
_cell_angle_gamma    93.3021645343
_symmetry_space_group_name_H-M    'P 1'
loop_
_atom_site_label
_atom_site_type_symbol
_atom_site_fract_x
_atom_site_fract_y
_atom_site_fract_z
_atom_site_occupancy
H4   H   0.375808727677902   0.806551112033321   0.694579213361785   1.0
H5   H   0.398078972683311   0.643631486292415   0.289292135313394   1.0
H6   H   0.570132375742236   0.867694757393855   0.502325814363224   1.0
H7   H   0.484636910850159   0.269969616457820   0.569438146402477   1.0
H8   H   0.776798227287894   0.630565930891430   0.665895440441309   1.0
H9   H   0.549793413004573   0.526881084754889   0.833789787653714   1.0
H10   H   0.227221819997501   0.538018884333459   0.513097513225325   1.0
H11   H   0.674688841505131   0.411007065695575   0.383584135445656   1.0
C12   C   0.614012817117527   0.574272139522341   0.674360360739328   1.0
C13   C   0.388228084422869   0.582038766312629   0.449908394724429   1.0
C14   C   0.549988881342868   0.425656696835526   0.508822725713541   1.0
N16   N   0.481159632684562   0.745637048116516   0.586952611558671   1.0
