data_1
_audit_creation_method   'Generated by vasp2cif'
_cell_length_a    8.79557136477
_cell_length_b    6.58409767277
_cell_length_c    4.73171991136
_cell_angle_alpha    89.5397270784
_cell_angle_beta    84.0685307761
_cell_angle_gamma    89.3159424136
_symmetry_space_group_name_H-M    'P 1'
loop_
_atom_site_label
_atom_site_type_symbol
_atom_site_fract_x
_atom_site_fract_y
_atom_site_fract_z
_atom_site_occupancy
H4   H   0.600006168685447   0.024949833328272   0.068778682712924   1.0
H5   H   0.331066204692213   0.281183725357366   0.997784981122642   1.0
H6   H   0.338286691997567   0.023800164501850   0.996037627073498   1.0
H7   H   0.386616911428334   0.021998767087616   0.505437118827103   1.0
H8   H   0.382594400497361   0.295161599955272   0.508308720123942   1.0
H9   H   0.664069889168587   0.294041088502105   0.546090857349974   1.0
H10   H   0.666150537633399   0.024355700519635   0.550319963359868   1.0
H11   H   0.593137222607183   0.298804310676438   0.063072233471665   1.0
C12   C   0.430735909378448   0.158120506325524   0.596350378501619   1.0
C13   C   0.565808650215004   0.160096916030945   0.956428760361973   1.0
C14   C   0.604271087010645   0.159469476049246   0.630757504414568   1.0
N16   N   0.392693848608857   0.154966360221671   0.920532411056342   1.0
