data_1
_audit_creation_method   'Generated by vasp2cif'
_cell_length_a    6.29059017104
_cell_length_b    4.48467908851
_cell_length_c    9.36280513531
_cell_angle_alpha    88.5359277081
_cell_angle_beta    93.1307781675
_cell_angle_gamma    95.3871262514
_symmetry_space_group_name_H-M    'P 1'
loop_
_atom_site_label
_atom_site_type_symbol
_atom_site_fract_x
_atom_site_fract_y
_atom_site_fract_z
_atom_site_occupancy
H4   H   0.029813092825612   0.196512210833004   0.551282756482306   1.0
H5   H   0.248535763446667   0.197376237395017   0.356727173329858   1.0
H6   H   0.328837959497948   0.554134598781938   0.379460181183922   1.0
H7   H   0.570872053183275   0.063228298750686   0.475302037609876   1.0
H8   H   0.627394486366603   0.439605695094307   0.533335807289228   1.0
H9   H   0.425284119119013   0.312284047814437   0.749706236524191   1.0
H10   H   0.328829796947118   0.957872276232856   0.682640213501799   1.0
H11   H   0.150280735162185   0.558493546773544   0.599584874229905   1.0
C12   C   0.505350088082029   0.251175731848999   0.523382273018367   1.0
C13   C   0.180148483497763   0.334720920842145   0.568731655779083   1.0
C14   C   0.365038511508518   0.193481845308153   0.653894691891215   1.0
N16   N   0.309942146556755   0.350717188199397   0.432499652866081   1.0
