data_1
_audit_creation_method   'Generated by vasp2cif'
_cell_length_a    8.95275172475
_cell_length_b    4.56418758377
_cell_length_c    7.12197358374
_cell_angle_alpha    70.5803994475
_cell_angle_beta    89.9267367297
_cell_angle_gamma    98.8365062464
_symmetry_space_group_name_H-M    'P 1'
loop_
_atom_site_label
_atom_site_type_symbol
_atom_site_fract_x
_atom_site_fract_y
_atom_site_fract_z
_atom_site_occupancy
H4   H   0.559893593287356   0.499473318828102   0.734134506262009   1.0
H5   H   0.344782977078431   0.699690857977636   0.562745117236759   1.0
H6   H   0.337149856372577   0.924797859804166   0.702967184824459   1.0
H7   H   0.540478562204584   0.073977566496694   0.344190187166973   1.0
H8   H   0.493149328907215   0.343405650492890   0.457673835390111   1.0
H9   H   0.689786479843278   0.172412055721473   0.714655825022902   1.0
H10   H   0.752685483897828   0.969722564397763   0.564661671290231   1.0
H11   H   0.517565659445204   0.682088586884099   0.909619168216537   1.0
C12   C   0.527719704537773   0.115032939236251   0.484786548922443   1.0
C13   C   0.541521771537965   0.717713041719868   0.753315767832305   1.0
C14   C   0.653131766008890   0.015171224175049   0.631120868319300   1.0
N16   N   0.410585363008764   0.845416300620528   0.625829996845930   1.0
