data_1
_audit_creation_method   'Generated by vasp2cif'
_cell_length_a    6.77861112523
_cell_length_b    4.54431821799
_cell_length_c    9.22975693268
_cell_angle_alpha    104.314546055
_cell_angle_beta    89.3041319247
_cell_angle_gamma    101.162271043
_symmetry_space_group_name_H-M    'P 1'
loop_
_atom_site_label
_atom_site_type_symbol
_atom_site_fract_x
_atom_site_fract_y
_atom_site_fract_z
_atom_site_occupancy
H4   H   0.295132565924249   0.563324208214702   0.558421356193122   1.0
H5   H   0.477403499728595   0.728240157056348   0.356783664596342   1.0
H6   H   0.330247445560865   0.979893368335048   0.355224297880092   1.0
H7   H   0.668760721190012   0.061465063879979   0.573082477505714   1.0
H8   H   0.566805751409802   0.360813015855861   0.527635825411764   1.0
H9   H   0.268726293666241   0.244993617155693   0.692521704157770   1.0
H10   H   0.415230265529928   0.029365701163719   0.766705489370104   1.0
H11   H   0.106752752962777   0.752164471119748   0.511460341805879   1.0
C12   C   0.530533992361995   0.135876534006350   0.553297911313045   1.0
C13   C   0.264034813705678   0.779532606124619   0.543443265379267   1.0
C14   C   0.363491051627172   0.071490216158061   0.663987112306643   1.0
N16   N   0.404716521251196   0.887579323937437   0.425214409982743   1.0
