data_1
_audit_creation_method   'Generated by vasp2cif'
_cell_length_a    4.66649505605
_cell_length_b    6.33224334763
_cell_length_c    9.01665474494
_cell_angle_alpha    94.4569735561
_cell_angle_beta    90.4172530383
_cell_angle_gamma    96.5256994113
_symmetry_space_group_name_H-M    'P 1'
loop_
_atom_site_label
_atom_site_type_symbol
_atom_site_fract_x
_atom_site_fract_y
_atom_site_fract_z
_atom_site_occupancy
H4   H   0.939325741552484   0.973270485343282   0.200936556002603   1.0
H5   H   0.977050469689518   0.863067529367587   0.504852661664674   1.0
H6   H   0.687536434009177   0.804315454586770   0.391922032152604   1.0
H7   H   0.477894752721089   0.086296885998063   0.525415106160152   1.0
H8   H   0.825229027396040   0.194391012938767   0.595040617456658   1.0
H9   H   0.898049678503004   0.396025045881837   0.371763839265385   1.0
H10   H   0.605921381995448   0.239480172537247   0.274508399019353   1.0
H11   H   0.203431579935829   0.100686138710208   0.332384727214677   1.0
C12   C   0.702431716353076   0.125626745106029   0.496692388245765   1.0
C13   C   0.974803560851999   0.058625199319041   0.309481859742079   1.0
C14   C   0.783426151866801   0.236410105080625   0.353258347892059   1.0
N16   N   0.839686613270179   0.925941124925422   0.434062909940090   1.0
