data_1
_audit_creation_method   'Generated by vasp2cif'
_cell_length_a    8.47261458329
_cell_length_b    6.76870997446
_cell_length_c    4.77301332571
_cell_angle_alpha    86.9155980738
_cell_angle_beta    90.1069443068
_cell_angle_gamma    81.0171607175
_symmetry_space_group_name_H-M    'P 1'
loop_
_atom_site_label
_atom_site_type_symbol
_atom_site_fract_x
_atom_site_fract_y
_atom_site_fract_z
_atom_site_occupancy
H4   H   0.331428200961817   0.108914697954880   0.713439314665436   1.0
H5   H   0.529029768290037   0.411540064210101   0.817066032786741   1.0
H6   H   0.596674745400001   0.163044680372529   0.821246838793890   1.0
H7   H   0.597185555266464   0.154561951004808   0.310417537270027   1.0
H8   H   0.473084221825367   0.398557699845398   0.295839222303009   1.0
H9   H   0.234626031906650   0.220405695061416   0.292224319650970   1.0
H10   H   0.359407334621736   0.992755038666168   0.212446417742768   1.0
H11   H   0.257692833237499   0.361639902672252   0.804909252250845   1.0
C12   C   0.492845774631142   0.248951951946033   0.214622930853423   1.0
C13   C   0.337216898160150   0.222915582748748   0.862625164910860   1.0
C14   C   0.338523375012606   0.155331592552798   0.176515458151101   1.0
N16   N   0.509024221629666   0.271168793413665   0.894230701351823   1.0
