data_1
_audit_creation_method   'Generated by vasp2cif'
_cell_length_a    6.28354950808
_cell_length_b    7.0996186126
_cell_length_c    6.29692692135
_cell_angle_alpha    88.5099412486
_cell_angle_beta    80.9351172334
_cell_angle_gamma    89.5368150264
_symmetry_space_group_name_H-M    'P 1'
loop_
_atom_site_label
_atom_site_type_symbol
_atom_site_fract_x
_atom_site_fract_y
_atom_site_fract_z
_atom_site_occupancy
H4   H   0.555023230313616   0.033093653137087   0.768182033211183   1.0
H5   H   0.309626328489365   0.916882234512855   0.512709086994768   1.0
H6   H   0.276093050223018   0.513919859983766   0.510068102603583   1.0
H7   H   0.555952198029622   0.391278303093827   0.788228810846014   1.0
H8   H   0.144573516736962   0.212468758934705   0.360626247283825   1.0
C9   C   0.463355078256967   0.315175709705343   0.689783098159793   1.0
C10   C   0.338076287416754   0.060682236233738   0.549471579627081   1.0
C11   C   0.326430594710210   0.375246238791462   0.553567678145448   1.0
N13   N   0.467525527717214   0.120248304738816   0.684039009973688   1.0
N14   N   0.250838043882439   0.214729917873612   0.468552346235775   1.0
