data_1
_audit_creation_method   'Generated by vasp2cif'
_cell_length_a    6.31226391318
_cell_length_b    7.0176795334
_cell_length_c    6.32576337097
_cell_angle_alpha    92.52132876
_cell_angle_beta    80.1315279697
_cell_angle_gamma    90.7187798718
_symmetry_space_group_name_H-M    'P 1'
loop_
_atom_site_label
_atom_site_type_symbol
_atom_site_fract_x
_atom_site_fract_y
_atom_site_fract_z
_atom_site_occupancy
H4   H   0.469592901674749   0.037404162919772   0.264619853334507   1.0
H5   H   0.724522263933503   0.982924613041726   0.528219238142717   1.0
H6   H   0.702040327490360   0.578224884669567   0.443898283667390   1.0
H7   H   0.436056025608462   0.390262893346257   0.192249514151007   1.0
H8   H   0.860822109584394   0.311083146952894   0.632814128990693   1.0
C9   C   0.535227592838863   0.337730742969651   0.298660251833306   1.0
C10   C   0.683370649731882   0.117437140409289   0.471064416355857   1.0
C11   C   0.665335847244756   0.429715064216274   0.422204642166191   1.0
N13   N   0.549448804217711   0.144730388496581   0.331957433845639   1.0
N14   N   0.755534475490050   0.290053763974398   0.527462343760739   1.0
