data_1
_audit_creation_method   'Generated by vasp2cif'
_cell_length_a    6.41751668509
_cell_length_b    4.3704981431
_cell_length_c    9.67099631588
_cell_angle_alpha    88.1832827521
_cell_angle_beta    88.8782719669
_cell_angle_gamma    81.4112242397
_symmetry_space_group_name_H-M    'P 1'
loop_
_atom_site_label
_atom_site_type_symbol
_atom_site_fract_x
_atom_site_fract_y
_atom_site_fract_z
_atom_site_occupancy
H4   H   0.533795847715005   0.527281945539812   0.310209391063737   1.0
H5   H   0.235753318044544   0.264792032030023   0.663236508621189   1.0
H6   H   0.518662309262851   0.566775195580576   0.749011514542737   1.0
H7   H   0.725931272074327   0.740806038981795   0.509688943225044   1.0
H8   H   0.240194209960457   0.236197211086498   0.398728473191220   1.0
C9   C   0.494833738248182   0.527307259388920   0.641572059258827   1.0
C10   C   0.595805177788229   0.613274474021814   0.524213937320788   1.0
C11   C   0.343013095238085   0.348432297113277   0.460749193851591   1.0
N13   N   0.338992486892828   0.362870032216094   0.599473031579919   1.0
N14   N   0.498644070906984   0.499473849128989   0.413489406360945   1.0
