data_1
_audit_creation_method   'Generated by vasp2cif'
_cell_length_a    10.2085293078
_cell_length_b    4.43199499317
_cell_length_c    6.39384375997
_cell_angle_alpha    82.7833118961
_cell_angle_beta    85.9528095727
_cell_angle_gamma    68.9247951379
_symmetry_space_group_name_H-M    'P 1'
loop_
_atom_site_label
_atom_site_type_symbol
_atom_site_fract_x
_atom_site_fract_y
_atom_site_fract_z
_atom_site_occupancy
H4   H   0.711386149326344   0.718527191789079   0.594252477611384   1.0
H5   H   0.367762273564693   0.856033745864956   0.248929236538061   1.0
H6   H   0.279746361685241   0.285115343383438   0.510267383193280   1.0
H7   H   0.511745925799048   0.185068808432888   0.751541689447265   1.0
H8   H   0.628187846854608   0.508581230475301   0.295397517676818   1.0
C9   C   0.385927377282322   0.115109693185119   0.503484949126111   1.0
C10   C   0.499531781692248   0.065448911319677   0.621913223137348   1.0
C11   C   0.565483909446129   0.702860784181439   0.386299983186049   1.0
N13   N   0.429446788390607   0.886658344821363   0.358676390402998   1.0
N14   N   0.609421833478550   0.807874121932983   0.546530156727869   1.0
