data_1
_audit_creation_method   'Generated by vasp2cif'
_cell_length_a    9.10155481344
_cell_length_b    4.36355245317
_cell_length_c    6.65227747152
_cell_angle_alpha    100.28448497
_cell_angle_beta    93.3492093932
_cell_angle_gamma    90.7588700321
_symmetry_space_group_name_H-M    'P 1'
loop_
_atom_site_label
_atom_site_type_symbol
_atom_site_fract_x
_atom_site_fract_y
_atom_site_fract_z
_atom_site_occupancy
H4   H   0.313767985683626   0.853527675575171   0.378144536910793   1.0
H5   H   0.524852257837459   0.339518152420199   0.760099293352680   1.0
H6   H   0.722070383752713   0.470197347465902   0.530060130969113   1.0
H7   H   0.580711021995856   0.831013661849247   0.274447147235913   1.0
H8   H   0.272994514951115   0.557621666292672   0.669562341362565   1.0
C9   C   0.609957389351566   0.544009974517314   0.519311900816590   1.0
C10   C   0.540830602510394   0.721793148813940   0.394521409065389   1.0
C11   C   0.374776852543061   0.586261496973167   0.600146677084851   1.0
N13   N   0.504466671987220   0.462771474132177   0.644836554702939   1.0
N14   N   0.395634530150261   0.746099225610008   0.449065578851006   1.0
