data_1
_audit_creation_method   'Generated by vasp2cif'
_cell_length_a    6.45347040583
_cell_length_b    4.49348077715
_cell_length_c    9.33704321904
_cell_angle_alpha    96.024907393
_cell_angle_beta    92.5537986513
_cell_angle_gamma    95.9297739556
_symmetry_space_group_name_H-M    'P 1'
loop_
_atom_site_label
_atom_site_type_symbol
_atom_site_fract_x
_atom_site_fract_y
_atom_site_fract_z
_atom_site_occupancy
H4   H   0.415414100261782   0.917226306510351   0.721134548268717   1.0
H5   H   0.755799030394729   0.769997677105440   0.366131993596367   1.0
H6   H   0.497873324034053   0.134336290085718   0.293997589764463   1.0
H7   H   0.259545923186635   0.224826148978210   0.533544282218051   1.0
H8   H   0.709954818211563   0.634258842168551   0.622899452262265   1.0
C9   C   0.504459062149418   0.049429776616222   0.397436883374402   1.0
C10   C   0.387330435799971   0.092848989113508   0.514569096499677   1.0
C11   C   0.619634965639010   0.778641303888214   0.566118334629457   1.0
N13   N   0.646925111014528   0.852537519020057   0.431922786804965   1.0
N14   N   0.461153394872608   0.921500075553635   0.617518671509832   1.0
