data_1
_audit_creation_method   'Generated by vasp2cif'
_cell_length_a    6.69191337477
_cell_length_b    4.37859050764
_cell_length_c    9.86451154688
_cell_angle_alpha    112.803244971
_cell_angle_beta    96.9962524221
_cell_angle_gamma    79.6019970622
_symmetry_space_group_name_H-M    'P 1'
loop_
_atom_site_label
_atom_site_type_symbol
_atom_site_fract_x
_atom_site_fract_y
_atom_site_fract_z
_atom_site_occupancy
H4   H   0.568011637351347   0.177857383489162   0.275322749366495   1.0
H5   H   0.276080018833795   0.421395946048101   0.651665721884690   1.0
H6   H   0.541154968368978   0.823215645146270   0.725840375922608   1.0
H7   H   0.745028811924165   0.652417753584423   0.470479658441505   1.0
H8   H   0.287267176177906   0.030707990930999   0.381085190362583   1.0
C9   C   0.520756543916249   0.639147153546041   0.616762189062470   1.0
C10   C   0.620216620781619   0.555966542334268   0.491546056191630   1.0
C11   C   0.383440241086589   0.219984311551826   0.439433332275541   1.0
N13   N   0.375316980532197   0.425922788795518   0.581594150915507   1.0
N14   N   0.532385645575872   0.295081109751493   0.383190211305191   1.0
