data_1
_audit_creation_method   'Generated by vasp2cif'
_cell_length_a    4.92070066102
_cell_length_b    5.08503955765
_cell_length_c    5.0753201493
_cell_angle_alpha    76.7995745055
_cell_angle_beta    85.3026118786
_cell_angle_gamma    92.9811554427
_symmetry_space_group_name_H-M    'P 1'
loop_
_atom_site_label
_atom_site_type_symbol
_atom_site_fract_x
_atom_site_fract_y
_atom_site_fract_z
_atom_site_occupancy
C1   C   0.434143709350074   0.578614504904031   0.344301860366329   1.0
C2   C   0.518336123054333   0.357361889396955   0.207903784855802   1.0
H3   H   0.731596617118818   0.395271786221386   0.125022389105858   1.0
H4   H   0.387993106880486   0.355313620698460   0.046872795921210   1.0
H5   H   0.634746403383524   0.399794441843099   0.679803018009771   1.0
H6   H   0.555846544470306   0.716175148253988   0.685009490180299   1.0
H7   H   0.493126269216646   0.159252650500420   0.348126651752786   1.0
H8   H   0.458194470422661   0.776029950552065   0.204924752555293   1.0
H9   H   0.225922953445718   0.544712704384210   0.438702362199706   1.0
H10   H   0.809162117680316   0.676251888056782   0.469739583690412   1.0
N14   N   0.619655725069876   0.590788159177514   0.562315126827798   1.0
