data_1
_audit_creation_method   'Generated by vasp2cif'
_cell_length_a    5.29276836681
_cell_length_b    4.76818122651
_cell_length_c    5.05635413086
_cell_angle_alpha    80.376040806
_cell_angle_beta    73.3198883135
_cell_angle_gamma    85.3741063203
_symmetry_space_group_name_H-M    'P 1'
loop_
_atom_site_label
_atom_site_type_symbol
_atom_site_fract_x
_atom_site_fract_y
_atom_site_fract_z
_atom_site_occupancy
C1   C   0.552248855267791   0.786013888158415   0.324343314993719   1.0
C2   C   0.510347268730520   0.568244606648669   0.158195788408598   1.0
H3   H   0.693846874435366   0.518116983418231   0.009299853260089   1.0
H4   H   0.369060063759818   0.652798903016794   0.044499988839433   1.0
H5   H   0.718745098178857   0.479901240233097   0.577533941601516   1.0
H6   H   0.783318310468786   0.821582368542657   0.589871538332510   1.0
H7   H   0.436228367744533   0.371756640583406   0.290119959603075   1.0
H8   H   0.613856179971215   0.986299187946798   0.193649463386720   1.0
H9   H   0.374884167592036   0.821991247201765   0.488237672850197   1.0
H10   H   0.940231290984222   0.664855477979700   0.312397703036311   1.0
N14   N   0.764982005920281   0.680033071357727   0.464058195094687   1.0
