data_1
_audit_creation_method   'Generated by vasp2cif'
_cell_length_a    4.2023205775
_cell_length_b    3.70576479177
_cell_length_c    7.9335387821
_cell_angle_alpha    94.5800773035
_cell_angle_beta    96.1546294754
_cell_angle_gamma    93.5188493641
_symmetry_space_group_name_H-M    'P 1'
loop_
_atom_site_label
_atom_site_type_symbol
_atom_site_fract_x
_atom_site_fract_y
_atom_site_fract_z
_atom_site_occupancy
C1   C   0.627767801564900   0.734890692889259   0.425059911291747   1.0
C2   C   0.485242511730348   0.537131306548467   0.562426491791229   1.0
H3   H   0.636719508842177   0.336274055868799   0.614297084183015   1.0
H4   H   0.455033605503175   0.743080898909682   0.663904416306870   1.0
H5   H   0.817954406078272   0.342391990968451   0.253687039117601   1.0
H6   H   0.641397998589248   0.680606432230206   0.164590909328709   1.0
H7   H   0.477256580707980   0.950973966695180   0.393869257673401   1.0
H8   H   0.248357595397671   0.406239101448158   0.517164310255382   1.0
H9   H   0.872255127752929   0.844982994306172   0.464739618471597   1.0
H10   H   0.416436872545269   0.341310421853699   0.228658573683433   1.0
N14   N   0.627476961163552   0.507754628032728   0.258732473279018   1.0
