data_1
_audit_creation_method   'Generated by vasp2cif'
_cell_length_a    5.03200810549
_cell_length_b    3.73268572219
_cell_length_c    7.12237135792
_cell_angle_alpha    101.930558444
_cell_angle_beta    101.829067679
_cell_angle_gamma    102.563654956
_symmetry_space_group_name_H-M    'P 1'
loop_
_atom_site_label
_atom_site_type_symbol
_atom_site_fract_x
_atom_site_fract_y
_atom_site_fract_z
_atom_site_occupancy
C1   C   0.401815750069410   0.867646402812980   0.623022673081863   1.0
C2   C   0.569157138751507   0.648507550601558   0.513992287060894   1.0
H3   H   0.439702186916470   0.412797215744497   0.388635021570948   1.0
H4   H   0.704114688596050   0.843532710319501   0.456614708798355   1.0
H5   H   0.087071363572257   0.409802596215400   0.628683292935783   1.0
H6   H   0.123161363334248   0.813620264818340   0.800476274295811   1.0
H7   H   0.542196356790399   0.111327506064455   0.736852454564321   1.0
H8   H   0.699521986304198   0.537381237411147   0.615477392208078   1.0
H9   H   0.253627697256803   0.959943591675959   0.522724976682213   1.0
H10   H   0.358594083432578   0.562536064820272   0.840523117197314   1.0
N14   N   0.231309076421127   0.642375242348095   0.730491116548777   1.0
