data_1
_audit_creation_method   'Generated by vasp2cif'
_cell_length_a    4.69078511664
_cell_length_b    3.62963239243
_cell_length_c    8.19103648586
_cell_angle_alpha    66.9192927798
_cell_angle_beta    105.165800347
_cell_angle_gamma    105.251527093
_symmetry_space_group_name_H-M    'P 1'
loop_
_atom_site_label
_atom_site_type_symbol
_atom_site_fract_x
_atom_site_fract_y
_atom_site_fract_z
_atom_site_occupancy
C1   C   0.281025578490223   0.447655135682894   0.584887752947715   1.0
C2   C   0.557102204762160   0.432935652539733   0.525402797844293   1.0
H3   H   0.496326408269823   0.373790314529323   0.398910747581233   1.0
H4   H   0.711439533808424   0.722603280585240   0.503090104001771   1.0
H5   H   0.390125916138054   0.176934963383104   0.867477134629034   1.0
H6   H   0.195443782795564   0.553722921876989   0.803723533869174   1.0
H7   H   0.187772286133445   0.719033208599114   0.497842037197344   1.0
H8   H   0.675504646787346   0.195906830767093   0.626522426851835   1.0
H9   H   0.104256808973709   0.186229297585442   0.585128423786934   1.0
H10   H   0.564947712186381   0.641610245808351   0.794718539869628   1.0
N14   N   0.358639523768055   0.459933851495855   0.772364949518455   1.0
