data_1
_audit_creation_method   'Generated by vasp2cif'
_cell_length_a    7.33395669973
_cell_length_b    3.89600328512
_cell_length_c    4.85684538978
_cell_angle_alpha    115.096356528
_cell_angle_beta    76.241693265
_cell_angle_gamma    103.506229824
_symmetry_space_group_name_H-M    'P 1'
loop_
_atom_site_label
_atom_site_type_symbol
_atom_site_fract_x
_atom_site_fract_y
_atom_site_fract_z
_atom_site_occupancy
C1   C   0.571782227309086   0.470330411606490   0.444378979128885   1.0
C2   C   0.698548739833875   0.836715018758142   0.605025070564679   1.0
H3   H   0.802142083690590   0.767633753207591   0.693738665905123   1.0
H4   H   0.777529473953720   0.976249317819004   0.450718717973871   1.0
H5   H   0.466048951551287   0.637140296301503   0.151472169196481   1.0
H6   H   0.340413144159733   0.747437286134357   0.496104681427298   1.0
H7   H   0.653154095345457   0.270386385165509   0.248590581747756   1.0
H8   H   0.613831237322607   0.035303103192227   0.795040896910059   1.0
H9   H   0.497826475366651   0.333027236574615   0.601069243783691   1.0
H10   H   0.326528140463225   0.291618327166965   0.242584519014635   1.0
N14   N   0.419374366473619   0.543005091644055   0.327902738622655   1.0
