data_1
_audit_creation_method   'Generated by vasp2cif'
_cell_length_a    4.21771802259
_cell_length_b    3.54652825751
_cell_length_c    8.17254739174
_cell_angle_alpha    97.7009725744
_cell_angle_beta    86.0048019803
_cell_angle_gamma    86.0300385226
_symmetry_space_group_name_H-M    'P 1'
loop_
_atom_site_label
_atom_site_type_symbol
_atom_site_fract_x
_atom_site_fract_y
_atom_site_fract_z
_atom_site_occupancy
C1   C   0.422514001554553   0.087687302045687   0.467703262974275   1.0
C2   C   0.668443131644189   0.958859278279135   0.578867083491090   1.0
H3   H   0.825775384310312   0.719082496934057   0.516935910876292   1.0
H4   H   0.813100148290481   0.188915689717824   0.621114416032114   1.0
H5   H   0.392346645885610   0.324889945735535   0.250662592269251   1.0
H6   H   0.629820136123904   0.915930132700481   0.221647500689635   1.0
H7   H   0.253186833407121   0.877812547058589   0.439056574859038   1.0
H8   H   0.548495441572946   0.863423774874491   0.686304718179485   1.0
H9   H   0.291266183042751   0.350233935545113   0.525964069929877   1.0
H10   H   0.765212993017130   0.315705762028443   0.307220466609294   1.0
N14   N   0.564536274245647   0.163432099204783   0.301456659825462   1.0
