data_1
_audit_creation_method   'Generated by vasp2cif'
_cell_length_a    4.68466409586
_cell_length_b    3.6242491803
_cell_length_c    7.57642457773
_cell_angle_alpha    92.9348149661
_cell_angle_beta    80.6291671843
_cell_angle_gamma    74.2243009742
_symmetry_space_group_name_H-M    'P 1'
loop_
_atom_site_label
_atom_site_type_symbol
_atom_site_fract_x
_atom_site_fract_y
_atom_site_fract_z
_atom_site_occupancy
C1   C   0.366116597173367   0.613594550931261   0.495063544097555   1.0
C2   C   0.647062970994888   0.680810109878891   0.549709801685971   1.0
H3   H   0.801689434823800   0.409849944294003   0.570609840507188   1.0
H4   H   0.764636870826507   0.814023652128810   0.446881662734675   1.0
H5   H   0.644135855850699   0.207168003808768   0.283214273483757   1.0
H6   H   0.467886208194742   0.604227400009215   0.213313546863631   1.0
H7   H   0.274058027582825   0.430199819737375   0.583348088544625   1.0
H8   H   0.590421633570202   0.866829324363948   0.675617042390520   1.0
H9   H   0.188707747287914   0.878661760708205   0.497320211457343   1.0
H10   H   0.271439015613268   0.294388777743301   0.279050047892270   1.0
N14   N   0.437427622081543   0.415243974162486   0.308168725421538   1.0
