data_1
_audit_creation_method   'Generated by vasp2cif'
_cell_length_a    8.15452201281
_cell_length_b    3.7714405417
_cell_length_c    3.98007332087
_cell_angle_alpha    87.9259807336
_cell_angle_beta    86.0262364129
_cell_angle_gamma    86.3623072556
_symmetry_space_group_name_H-M    'P 1'
loop_
_atom_site_label
_atom_site_type_symbol
_atom_site_fract_x
_atom_site_fract_y
_atom_site_fract_z
_atom_site_occupancy
C1   C   0.373574755284437   0.781781477024495   0.365194879693668   1.0
C2   C   0.511976866933324   0.534891031656429   0.488045336096320   1.0
H3   H   0.546444014703560   0.320216232988990   0.317915013213039   1.0
H4   H   0.617197774625858   0.694719432705732   0.506813664100456   1.0
H5   H   0.208333256651798   0.436834116678540   0.165468883856768   1.0
H6   H   0.116765232877647   0.797283345177433   0.347137006818208   1.0
H7   H   0.349036670159315   0.996389188873884   0.537129294832752   1.0
H8   H   0.479986369621408   0.420764854105869   0.738140281657564   1.0
H9   H   0.402321605808275   0.887227951152475   0.112094420891978   1.0
H10   H   0.190674523319764   0.453796027636791   0.582590324170667   1.0
N14   N   0.212634346863780   0.606493289053326   0.363792949960050   1.0
