data_1
_audit_creation_method   'Generated by vasp2cif'
_cell_length_a    8.71476340081
_cell_length_b    3.76874578072
_cell_length_c    3.80404488592
_cell_angle_alpha    94.6511633155
_cell_angle_beta    83.8723203387
_cell_angle_gamma    80.8747680536
_symmetry_space_group_name_H-M    'P 1'
loop_
_atom_site_label
_atom_site_type_symbol
_atom_site_fract_x
_atom_site_fract_y
_atom_site_fract_z
_atom_site_occupancy
C1   C   0.604164572426747   0.778539943345208   0.586471085078145   1.0
C2   C   0.481960509613302   0.589066418647640   0.432092596560089   1.0
H3   H   0.430604465914904   0.418334851444293   0.611986082595635   1.0
H4   H   0.390448004086984   0.800465217208831   0.374517903516008   1.0
H5   H   0.745583220422915   0.351710116281367   0.813609256020214   1.0
H6   H   0.829321326346438   0.695962205605099   0.722607228342326   1.0
H7   H   0.640352767108944   0.968243982260013   0.409440588148918   1.0
H8   H   0.527688732924197   0.426567264192912   0.181967653267328   1.0
H9   H   0.557769750716460   0.920607687815611   0.845033649413459   1.0
H10   H   0.805610568137986   0.383465802496538   0.395003798347503   1.0
N14   N   0.754147801256416   0.536091934482066   0.628871827788508   1.0
