data_1
_audit_creation_method   'Generated by vasp2cif'
_cell_length_a    6.82701010085
_cell_length_b    4.2589215859
_cell_length_c    4.4141359338
_cell_angle_alpha    84.9217913755
_cell_angle_beta    99.0097920934
_cell_angle_gamma    88.929944544
_symmetry_space_group_name_H-M    'P 1'
loop_
_atom_site_label
_atom_site_type_symbol
_atom_site_fract_x
_atom_site_fract_y
_atom_site_fract_z
_atom_site_occupancy
C1   C   0.639936854053566   0.618989104087760   0.484188943566210   1.0
C2   C   0.480589511491999   0.660820594754043   0.684082411881455   1.0
H3   H   0.333814675737464   0.637949390419053   0.552265159174901   1.0
H4   H   0.501358258601798   0.477307291518095   0.875677814867039   1.0
H5   H   0.716522595391346   0.159595838152356   0.648366906079410   1.0
H6   H   0.747792710720354   0.226795902168796   0.282746705339179   1.0
H7   H   0.603937290103580   0.746949276221770   0.258578679956265   1.0
H8   H   0.480512854632650   0.888019152970578   0.777053912786599   1.0
H9   H   0.785862876807322   0.687915779614428   0.590204660989940   1.0
H10   H   0.516899853445210   0.196453361638184   0.356073597350758   1.0
N14   N   0.655759142328996   0.278037693685789   0.438577264094782   1.0
