data_1
_audit_creation_method   'Generated by vasp2cif'
_cell_length_a    4.65237968674
_cell_length_b    5.12175841856
_cell_length_c    6.64693551814
_cell_angle_alpha    73.3875060042
_cell_angle_beta    90.5455748299
_cell_angle_gamma    90.0747707239
_symmetry_space_group_name_H-M    'P 1'
loop_
_atom_site_label
_atom_site_type_symbol
_atom_site_fract_x
_atom_site_fract_y
_atom_site_fract_z
_atom_site_occupancy
C1   C   0.658047208271483   0.699969794579673   0.409850944430332   1.0
C2   C   0.645402153841083   0.417057898415230   0.378177928944481   1.0
C3   C   0.657298085604815   0.441378157197633   0.145277840807950   1.0
H4   H   0.857065575907008   0.539580769971010   0.078001001008957   1.0
H5   H   0.649902934906400   0.243727179457416   0.118069488953950   1.0
H6   H   0.446077258409211   0.313694439951369   0.443671667332851   1.0
H7   H   0.827377840877652   0.293780571786712   0.458742279591661   1.0
H8   H   0.460430550962748   0.583574601268637   0.702885834315552   1.0
H9   H   0.646800175223397   0.873312915503952   0.664519632482659   1.0
H10   H   0.474457590013707   0.559263418132964   0.062419146132108   1.0
H11   H   0.857128430002426   0.804206457488171   0.349733990992867   1.0
H12   H   0.476816840627642   0.824825575358247   0.333505970534596   1.0
H13   H   0.821517628561899   0.576364774839689   0.714521922487720   1.0
N17   N   0.645378705487019   0.684744358136669   0.638377545791066   1.0
