data_1
_audit_creation_method   'Generated by vasp2cif'
_cell_length_a    6.46842098801
_cell_length_b    4.61004173803
_cell_length_c    5.15609898361
_cell_angle_alpha    106.178825594
_cell_angle_beta    77.5422610275
_cell_angle_gamma    93.6618497709
_symmetry_space_group_name_H-M    'P 1'
loop_
_atom_site_label
_atom_site_type_symbol
_atom_site_fract_x
_atom_site_fract_y
_atom_site_fract_z
_atom_site_occupancy
C1   C   0.396371444231306   0.722466715931034   0.587709343495334   1.0
C2   C   0.376233534684062   0.452271551107202   0.703073353521148   1.0
C3   C   0.541657878683196   0.477729404045498   0.877731211174584   1.0
H4   H   0.529980039235646   0.699083924942414   0.027538644780250   1.0
H5   H   0.520071483483598   0.305742452077496   0.989309739772452   1.0
H6   H   0.401279861088788   0.248963783537853   0.530616450420375   1.0
H7   H   0.215712601428436   0.441145206515856   0.822684285717550   1.0
H8   H   0.210148930915025   0.498610275411210   0.305727438882272   1.0
H9   H   0.242304675252683   0.863383690504300   0.315014235815937   1.0
H10   H   0.702334451303237   0.460379635564351   0.755514473783933   1.0
H11   H   0.378364048985510   0.928476244850295   0.754197477340512   1.0
H12   H   0.549305975206003   0.723790887172193   0.449337936103156   1.0
H13   H   0.079424184771568   0.771678908851463   0.569824344446324   1.0
N17   N   0.224054179557910   0.712327088659436   0.433306563099848   1.0
