data_1
_audit_creation_method   'Generated by vasp2cif'
_cell_length_a    4.91941821965
_cell_length_b    5.19457758875
_cell_length_c    6.21491454968
_cell_angle_alpha    109.372631993
_cell_angle_beta    77.1129715559
_cell_angle_gamma    94.8380340432
_symmetry_space_group_name_H-M    'P 1'
loop_
_atom_site_label
_atom_site_type_symbol
_atom_site_fract_x
_atom_site_fract_y
_atom_site_fract_z
_atom_site_occupancy
C1   C   0.509219627184151   0.622373086534422   0.614092345367877   1.0
C2   C   0.374942007032232   0.417687755546622   0.734192336388435   1.0
C3   C   0.587579632940413   0.346424854964346   0.849565042519876   1.0
H4   H   0.663379218464464   0.529110481610451   0.968468022671763   1.0
H5   H   0.499992731091096   0.208255796357742   0.946286602600267   1.0
H6   H   0.311003048934045   0.234122675672811   0.606971540832158   1.0
H7   H   0.187993702748397   0.502669185570155   0.862586867338341   1.0
H8   H   0.322515503794573   0.462495564260768   0.326037929300911   1.0
H9   H   0.430474407385249   0.781756532622941   0.357275305419584   1.0
H10   H   0.769577699865873   0.245191932854960   0.720851161724031   1.0
H11   H   0.526096974809035   0.823375927543446   0.738393484443453   1.0
H12   H   0.717042277314506   0.561718502854656   0.513445721901937   1.0
H13   H   0.149168272350439   0.721859014411410   0.540909200482556   1.0
N17   N   0.343504003550107   0.648519771380844   0.447301369321729   1.0
