data_1
_audit_creation_method   'Generated by vasp2cif'
_cell_length_a    4.86049003853
_cell_length_b    5.57854686619
_cell_length_c    5.55093961775
_cell_angle_alpha    78.523583393
_cell_angle_beta    79.2738652447
_cell_angle_gamma    87.1577399395
_symmetry_space_group_name_H-M    'P 1'
loop_
_atom_site_label
_atom_site_type_symbol
_atom_site_fract_x
_atom_site_fract_y
_atom_site_fract_z
_atom_site_occupancy
C1   C   0.477625937067188   0.592417193946225   0.412253949634611   1.0
C2   C   0.533093260547282   0.471787503194186   0.186346236577926   1.0
C3   C   0.454200030550624   0.204411701601984   0.254601842935145   1.0
H4   H   0.229290644348573   0.184640298079117   0.325674334003338   1.0
H5   H   0.503547512579395   0.118643030769462   0.092738440241952   1.0
H6   H   0.754119326133136   0.489976949332103   0.098403279247918   1.0
H7   H   0.407500410899360   0.567887962089131   0.052561729671908   1.0
H8   H   0.688335566965684   0.321987147880513   0.647780330220918   1.0
H9   H   0.668475984008303   0.600740608950822   0.719494599774301   1.0
H10   H   0.571597215617707   0.106786296255301   0.393850301410758   1.0
H11   H   0.494919294056771   0.788107032420690   0.361209508303276   1.0
H12   H   0.277031123810104   0.541918680135915   0.529311630480962   1.0
H13   H   0.886271640119013   0.559098894008699   0.467451698091608   1.0
N17   N   0.694116405757995   0.507734177940563   0.574905799679577   1.0
