data_1
_audit_creation_method   'Generated by vasp2cif'
_cell_length_a    4.82772706048
_cell_length_b    5.57492813846
_cell_length_c    5.59741166112
_cell_angle_alpha    77.8086611737
_cell_angle_beta    78.6341619969
_cell_angle_gamma    85.7696923107
_symmetry_space_group_name_H-M    'P 1'
loop_
_atom_site_label
_atom_site_type_symbol
_atom_site_fract_x
_atom_site_fract_y
_atom_site_fract_z
_atom_site_occupancy
C1   C   0.498613165738220   0.633254753840149   0.364259971195189   1.0
C2   C   0.547016943331087   0.497078700579834   0.152142030816933   1.0
C3   C   0.418861783876068   0.246016297023445   0.227675315120642   1.0
H4   H   0.188491498810691   0.259932523027153   0.277925391010719   1.0
H5   H   0.469006022052795   0.148371834178128   0.075967861977873   1.0
H6   H   0.773861741158008   0.480361191149647   0.077691219244436   1.0
H7   H   0.448575082406386   0.608679769937567   0.004739149782580   1.0
H8   H   0.895338526824339   0.534176804819886   0.454719370461177   1.0
H9   H   0.646475896353181   0.346473124531144   0.634575225684550   1.0
H10   H   0.504230831483916   0.137909126124370   0.384346672129091   1.0
H11   H   0.550976022013622   0.823007534922972   0.301206594489337   1.0
H12   H   0.285036434774170   0.617488305426711   0.468801648143966   1.0
H13   H   0.674400648706026   0.632291467840162   0.677459475047264   1.0
N17   N   0.689317770818136   0.526323963163222   0.546059144832370   1.0
