data_1
_audit_creation_method   'Generated by vasp2cif'
_cell_length_a    5.37731440195
_cell_length_b    4.72319194829
_cell_length_c    6.27938688278
_cell_angle_alpha    89.69548563
_cell_angle_beta    111.97779472
_cell_angle_gamma    75.5513651244
_symmetry_space_group_name_H-M    'P 1'
loop_
_atom_site_label
_atom_site_type_symbol
_atom_site_fract_x
_atom_site_fract_y
_atom_site_fract_z
_atom_site_occupancy
C1   C   0.165887803948976   0.357316001802161   0.580093445224612   1.0
C2   C   0.299839600741294   0.610606583553441   0.618468456444823   1.0
C3   C   0.546040487091744   0.562626343249384   0.849077347560076   1.0
H4   H   0.517401141283983   0.434653343092911   0.978750501626109   1.0
H5   H   0.575408595190190   0.771538877950881   0.908700065283448   1.0
H6   H   0.364599411249877   0.641890337499760   0.476986836338135   1.0
H7   H   0.141130849935322   0.810080978770060   0.607891343267518   1.0
H8   H   0.820430267752251   0.595216563818809   0.294150015715850   1.0
H9   H   0.774671542380773   0.621756419183498   0.538638688046944   1.0
H10   H   0.250609274198808   0.193394573914034   0.487158369765481   1.0
H11   H   0.736599913758432   0.443173755399194   0.832783365329696   1.0
H12   H   0.191560862581241   0.252789108126336   0.744344447369599   1.0
H13   H   0.762378539160913   0.303616773677419   0.406802766863741   1.0
N17   N   0.855094617949945   0.473910982659547   0.444514101685812   1.0
