data_1
_audit_creation_method   'Generated by vasp2cif'
_cell_length_a    5.42000811669
_cell_length_b    4.73693587968
_cell_length_c    6.32058781679
_cell_angle_alpha    89.959165773
_cell_angle_beta    112.385718041
_cell_angle_gamma    73.7841129243
_symmetry_space_group_name_H-M    'P 1'
loop_
_atom_site_label
_atom_site_type_symbol
_atom_site_fract_x
_atom_site_fract_y
_atom_site_fract_z
_atom_site_occupancy
C1   C   0.168035447765995   0.350345830063610   0.643648807076111   1.0
C2   C   0.310492059356399   0.576146985325309   0.622382346450379   1.0
C3   C   0.559003725605479   0.565740639533225   0.846541442239392   1.0
H4   H   0.576104705643999   0.406728724258898   0.980042626638848   1.0
H5   H   0.543052287430157   0.780347993172271   0.909699132815923   1.0
H6   H   0.377421985731829   0.529119132078655   0.480839546156702   1.0
H7   H   0.155450674893579   0.793107073359550   0.574956761764795   1.0
H8   H   0.874381952661516   0.428117336572136   0.305854565069559   1.0
H9   H   0.767446702500436   0.646620464485721   0.482493693863887   1.0
H10   H   0.278475293171404   0.133159503029525   0.617594730965607   1.0
H11   H   0.753642585809196   0.496744334005427   0.823803572357129   1.0
H12   H   0.158160923516846   0.338726274966277   0.811815373338597   1.0
H13   H   0.776321608542425   0.282332019783361   0.492990076549340   1.0
N17   N   0.870299873291522   0.434051257033325   0.467242971716281   1.0
