data_1
_audit_creation_method   'Generated by vasp2cif'
_cell_length_a    6.87598424352
_cell_length_b    5.76839805059
_cell_length_c    4.58168518623
_cell_angle_alpha    87.681218359
_cell_angle_beta    90.2553456339
_cell_angle_gamma    108.109996134
_symmetry_space_group_name_H-M    'P 1'
loop_
_atom_site_label
_atom_site_type_symbol
_atom_site_fract_x
_atom_site_fract_y
_atom_site_fract_z
_atom_site_occupancy
C1   C   0.179928767837104   0.656362011841416   0.499047005228341   1.0
C2   C   0.502893169956153   0.217865622533331   0.457161562580026   1.0
C3   C   0.351047826601409   0.352885639525311   0.383393898425453   1.0
C4   C   0.377480969141757   0.591089357399490   0.537095679312451   1.0
H5   H   0.744885838223226   0.492158267573295   0.244745377072171   1.0
H6   H   0.817616164080974   0.287305017198939   0.450513120994053   1.0
H7   H   0.747869323756021   0.505638827745173   0.611188792199201   1.0
H8   H   0.123663582562017   0.626407397629578   0.275268179063744   1.0
H9   H   0.066258081659818   0.542162067689809   0.653704891659508   1.0
H10   H   0.195115240973763   0.842621467942678   0.547113780377494   1.0
H11   H   0.200437953101080   0.224874769263671   0.434181426659755   1.0
H12   H   0.354535051961307   0.391613527318370   0.147629807634367   1.0
H13   H   0.410240425627229   0.573867687553147   0.769793782108096   1.0
H14   H   0.508767707883884   0.734490089913656   0.443052137164813   1.0
H15   H   0.478742044333131   0.135536165455498   0.678236202114128   1.0
H16   H   0.490724685763404   0.075940432120646   0.301890990445855   1.0
N20   N   0.718427583741644   0.387975411974480   0.439834289297742   1.0
