data_1
_audit_creation_method   'Generated by vasp2cif'
_cell_length_a    5.7364360242
_cell_length_b    6.58817942721
_cell_length_c    4.61201770057
_cell_angle_alpha    84.5357835165
_cell_angle_beta    92.2128059409
_cell_angle_gamma    105.589334648
_symmetry_space_group_name_H-M    'P 1'
loop_
_atom_site_label
_atom_site_type_symbol
_atom_site_fract_x
_atom_site_fract_y
_atom_site_fract_z
_atom_site_occupancy
C1   C   0.236693193281077   0.719141439810883   0.553447758933267   1.0
C2   C   0.461124165844794   0.236972131460220   0.419184787459443   1.0
C3   C   0.320255198610148   0.401127757340191   0.359897943734964   1.0
C4   C   0.287542815978242   0.505639169892213   0.631123220775585   1.0
H5   H   0.796345228082195   0.447183532605735   0.310313803740897   1.0
H6   H   0.815975951803715   0.223765685753364   0.504445111555277   1.0
H7   H   0.752593552794387   0.420410176311577   0.672982191930707   1.0
H8   H   0.378026372941761   0.818309565179497   0.411648744325141   1.0
H9   H   0.066846182913587   0.706498512213670   0.434489682025408   1.0
H10   H   0.229009090575474   0.799966287909214   0.745989869137389   1.0
H11   H   0.147624213973153   0.323085434473633   0.261245875133405   1.0
H12   H   0.412475646215014   0.522701096071089   0.194294883143954   1.0
H13   H   0.148011625555647   0.399667825549642   0.769991880306527   1.0
H14   H   0.453116096399960   0.527992062561168   0.763193659762010   1.0
H15   H   0.388077989677846   0.127175709538200   0.605061753004506   1.0
H16   H   0.459294465936935   0.150127655750865   0.229947121578057   1.0
N20   N   0.725348746887057   0.340483930207697   0.486376870987542   1.0
