data_1
_audit_creation_method   'Generated by vasp2cif'
_cell_length_a    6.43227876309
_cell_length_b    5.01492333544
_cell_length_c    4.52505256206
_cell_angle_alpha    85.0446428083
_cell_angle_beta    86.8826208376
_cell_angle_gamma    91.3856514974
_symmetry_space_group_name_H-M    'P 1'
loop_
_atom_site_label
_atom_site_type_symbol
_atom_site_fract_x
_atom_site_fract_y
_atom_site_fract_z
_atom_site_occupancy
C1   C   0.398808276526665   0.698092670159326   0.113496147825465   1.0
C2   C   0.565475181705132   0.903355695367026   0.170451767976957   1.0
C3   C   0.482480779730395   0.081276880826877   0.399954433007430   1.0
H4   H   0.430566952812128   0.958547894797469   0.602607938268619   1.0
H5   H   0.596110771377454   0.230743377752468   0.452759437819800   1.0
H6   H   0.347238043716175   0.178573899334260   0.311801381738164   1.0
H7   H   0.871541634402355   0.906665190052877   0.305322781651121   1.0
H8   H   0.619751686104344   0.022980860462454   0.968065278631762   1.0
H9   H   0.456630787630928   0.555030044917210   0.963455508782801   1.0
H10   H   0.266197719768101   0.799145631679337   0.019866239948577   1.0
H11   H   0.342856649896000   0.590707905890888   0.323728823981682   1.0
H12   H   0.807693742671418   0.638185166993544   0.127595092344258   1.0
H13   H   0.727819828813892   0.654367596275478   0.483571113681357   1.0
N17   N   0.756147197130709   0.765040667543943   0.280533440543230   1.0
