data_1
_audit_creation_method   'Generated by vasp2cif'
_cell_length_a    5.42237113756
_cell_length_b    4.44105264467
_cell_length_c    6.11296532614
_cell_angle_alpha    85.1823294034
_cell_angle_beta    93.5998238961
_cell_angle_gamma    85.3537916817
_symmetry_space_group_name_H-M    'P 1'
loop_
_atom_site_label
_atom_site_type_symbol
_atom_site_fract_x
_atom_site_fract_y
_atom_site_fract_z
_atom_site_occupancy
C1   C   0.670826423500003   0.660441013327194   0.624597827129840   1.0
C2   C   0.440071463596716   0.502579886927137   0.670025287582888   1.0
C3   C   0.288016315730204   0.653050449184462   0.837721222250934   1.0
H4   H   0.403855752239302   0.671685219882768   0.987003585109449   1.0
H5   H   0.134294317271930   0.522419541908363   0.880764271713787   1.0
H6   H   0.214029140720399   0.880720919510019   0.771083144262747   1.0
H7   H   0.390639941362274   0.426645418844935   0.333213654365260   1.0
H8   H   0.485767478974431   0.262213433058207   0.722707180491625   1.0
H9   H   0.781072118597123   0.674477254865209   0.776846338579645   1.0
H10   H   0.781261968378786   0.541056976205141   0.512133994166952   1.0
H11   H   0.620246574790180   0.889577221932981   0.548391650722422   1.0
H12   H   0.143496488081951   0.370080427343453   0.465205592274621   1.0
H13   H   0.210265993154430   0.729841699293722   0.408788768886453   1.0
N17   N   0.286156833516181   0.511073458221908   0.454278874034031   1.0
