data_1
_audit_creation_method   'Generated by vasp2cif'
_cell_length_a    6.43278984767
_cell_length_b    4.49345491025
_cell_length_c    5.04077712519
_cell_angle_alpha    94.2597549263
_cell_angle_beta    91.2811684533
_cell_angle_gamma    93.850149642
_symmetry_space_group_name_H-M    'P 1'
loop_
_atom_site_label
_atom_site_type_symbol
_atom_site_fract_x
_atom_site_fract_y
_atom_site_fract_z
_atom_site_occupancy
C1   C   0.647874098670108   0.772238469462508   0.246226397610144   1.0
C2   C   0.570756549828353   0.549217139157264   0.437726284166452   1.0
C3   C   0.744523670038532   0.495558432414669   0.633000514182179   1.0
H4   H   0.872045399906355   0.397546735485619   0.526760105015953   1.0
H5   H   0.690959211652739   0.347849216322175   0.782634879164476   1.0
H6   H   0.807058224756823   0.708692613567237   0.730983798868344   1.0
H7   H   0.266230601507786   0.686568157228784   0.448906077522686   1.0
H8   H   0.509954599294382   0.342420937612623   0.329502302692852   1.0
H9   H   0.776592167224436   0.678476456713582   0.140992374764600   1.0
H10   H   0.528053924801732   0.822054070820244   0.104904766518622   1.0
H11   H   0.707302690661287   0.979403536091745   0.357324965528619   1.0
H12   H   0.339458631620779   0.515852221972494   0.718753325973260   1.0
H13   H   0.418824628984488   0.872940001013653   0.685714559075983   1.0
N17   N   0.386430729236992   0.665698247688049   0.583682230585168   1.0
