data_1
_audit_creation_method   'Generated by vasp2cif'
_cell_length_a    7.71091669559
_cell_length_b    4.64819494827
_cell_length_c    4.42655471267
_cell_angle_alpha    109.737722345
_cell_angle_beta    77.5733436671
_cell_angle_gamma    103.542146588
_symmetry_space_group_name_H-M    'P 1'
loop_
_atom_site_label
_atom_site_type_symbol
_atom_site_fract_x
_atom_site_fract_y
_atom_site_fract_z
_atom_site_occupancy
C1   C   0.403359294668405   0.405835482199386   0.673708821478542   1.0
C2   C   0.391413775559627   0.056892965940570   0.590697578202942   1.0
C3   C   0.226370655108738   0.889611014951790   0.425554913264634   1.0
H4   H   0.104059825647958   0.942089746762811   0.593307146123536   1.0
H5   H   0.213318621404603   0.638575414813573   0.346889568598144   1.0
H6   H   0.226269251445629   0.967364997715983   0.218537065753793   1.0
H7   H   0.663737275031288   0.994403261042926   0.511963217742355   1.0
H8   H   0.384547053694007   0.993935849167961   0.808737127224092   1.0
H9   H   0.359049986835309   0.450123851503811   0.479723622348047   1.0
H10   H   0.311509199003858   0.485046727981661   0.895518756336287   1.0
H11   H   0.538522524648442   0.534998934928275   0.704967234923743   1.0
H12   H   0.551059278445123   0.730799119355389   0.242747437633668   1.0
H13   H   0.608699099055940   0.092852063619979   0.217403053263311   1.0
N17   N   0.562695572385913   0.962495802168064   0.376270239901096   1.0
