data_1
_audit_creation_method   'Generated by vasp2cif'
_cell_length_a    7.5642159216
_cell_length_b    3.85287603352
_cell_length_c    5.67004526008
_cell_angle_alpha    113.43281085
_cell_angle_beta    83.1913486654
_cell_angle_gamma    107.305280867
_symmetry_space_group_name_H-M    'P 1'
loop_
_atom_site_label
_atom_site_type_symbol
_atom_site_fract_x
_atom_site_fract_y
_atom_site_fract_z
_atom_site_occupancy
C1   C   0.702282365932284   0.251492438335525   0.281011242887871   1.0
C2   C   0.590222571021542   0.059224562720288   0.459479771964382   1.0
C3   C   0.714757686817265   0.135536900449921   0.676565827410364   1.0
H4   H   0.851790548754124   0.108005806038321   0.603903474120671   1.0
H5   H   0.659969389878199   0.941918761604249   0.779086019279887   1.0
H6   H   0.732050582435654   0.438295900675925   0.814354088325445   1.0
H7   H   0.361464042885949   0.273453397408367   0.445514533593126   1.0
H8   H   0.532689577975191   0.749244679924566   0.347169693236687   1.0
H9   H   0.801644240466921   0.526566541526506   0.388280663515779   1.0
H10   H   0.781503538439473   0.054173655522831   0.153172883964750   1.0
H11   H   0.615178445876680   0.292186870632008   0.161488077264217   1.0
H12   H   0.316577914384958   0.986611584671863   0.607787190670479   1.0
H13   H   0.441031519748151   0.444808116205742   0.739953951344027   1.0
N17   N   0.420533300027827   0.200521710211568   0.569163971804016   1.0
