data_1
_audit_creation_method   'Generated by vasp2cif'
_cell_length_a    7.46491261546
_cell_length_b    3.73258660298
_cell_length_c    5.47624043397
_cell_angle_alpha    69.1380744045
_cell_angle_beta    83.9621462771
_cell_angle_gamma    81.7956557101
_symmetry_space_group_name_H-M    'P 1'
loop_
_atom_site_label
_atom_site_type_symbol
_atom_site_fract_x
_atom_site_fract_y
_atom_site_fract_z
_atom_site_occupancy
C1   C   0.569612826046040   0.973382299621534   0.238236193830765   1.0
C2   C   0.537113155719226   0.930956482441992   0.525086240747768   1.0
C3   C   0.700970060423899   0.022257670473081   0.625115475223282   1.0
H4   H   0.814357268278073   0.806406382574487   0.615969890243164   1.0
H5   H   0.677732150566833   0.013019569573210   0.825363837596484   1.0
H6   H   0.744445633128230   0.300492365500091   0.507170353237186   1.0
H7   H   0.342780467833528   0.202391719920961   0.744015172776365   1.0
H8   H   0.513738017400961   0.639549274638874   0.646150538258745   1.0
H9   H   0.460000975212978   0.886089739779216   0.163271882918345   1.0
H10   H   0.584812820663629   0.272821050124705   0.118853543248605   1.0
H11   H   0.695530308545898   0.798240670731843   0.215807661039968   1.0
H12   H   0.339613909667726   0.435085971252683   0.423402453184160   1.0
H13   H   0.253141497695857   0.024511806858079   0.553635228325959   1.0
N17   N   0.360167025765307   0.165597030742724   0.564493018293106   1.0
