data_1
_audit_creation_method   'Generated by vasp2cif'
_cell_length_a    5.54896220877
_cell_length_b    3.86486036361
_cell_length_c    7.33066030578
_cell_angle_alpha    74.1375426604
_cell_angle_beta    86.4605138044
_cell_angle_gamma    103.767370351
_symmetry_space_group_name_H-M    'P 1'
loop_
_atom_site_label
_atom_site_type_symbol
_atom_site_fract_x
_atom_site_fract_y
_atom_site_fract_z
_atom_site_occupancy
C1   C   0.464565458341610   0.496642003476488   0.692953183799929   1.0
C2   C   0.419025303801952   0.373122513776416   0.515245746253299   1.0
C3   C   0.298361610416478   0.606246651563012   0.363175338457410   1.0
H4   H   0.150160098203599   0.683023953137962   0.434070550708654   1.0
H5   H   0.218884369435223   0.440936784882382   0.272158123517883   1.0
H6   H   0.428444311233506   0.858756477958700   0.268377324883822   1.0
H7   H   0.661815757392887   0.223629277004065   0.328440889600365   1.0
H8   H   0.302453992211675   0.087783681407060   0.558837432722498   1.0
H9   H   0.491602195803878   0.270899750617552   0.809213803785404   1.0
H10   H   0.633087902965521   0.725183706414676   0.667019848220086   1.0
H11   H   0.307685632989667   0.585322720345061   0.741193503349933   1.0
H12   H   0.774806399049226   0.635110364847030   0.355936741484591   1.0
H13   H   0.770815760433273   0.258155107345019   0.537826038458746   1.0
N17   N   0.672793573569663   0.363721577750575   0.429357293838670   1.0
