data_1
_audit_creation_method   'Generated by vasp2cif'
_cell_length_a    6.05267436158
_cell_length_b    4.59497596415
_cell_length_c    4.5606902066
_cell_angle_alpha    84.977387511
_cell_angle_beta    99.3290435714
_cell_angle_gamma    99.7842413314
_symmetry_space_group_name_H-M    'P 1'
loop_
_atom_site_label
_atom_site_type_symbol
_atom_site_fract_x
_atom_site_fract_y
_atom_site_fract_z
_atom_site_occupancy
H4   H   0.481192267814002   0.696929018556169   0.250488675587654   1.0
H5   H   0.740212390902279   0.350219002811357   0.326517505175296   1.0
H6   H   0.627784622001059   0.699115175533088   0.583410736787805   1.0
H7   H   0.151487702232472   0.401262804350452   0.463851675012833   1.0
H8   H   0.334332349589239   0.404181952200389   0.811996014394886   1.0
H9   H   0.252660485698172   0.738451020918603   0.639090709803227   1.0
H10   H   0.455895520236744   0.178850278070783   0.232911138011396   1.0
H11   H   0.590552270433221   0.166004617211861   0.613481760263994   1.0
C12   C   0.292994150124286   0.525911433450425   0.600871104998731   1.0
C13   C   0.577504596226959   0.295007065715581   0.402802857680982   1.0
N15   N   0.498237346079726   0.574495687516652   0.451470109888113   1.0
