data_1
_audit_creation_method   'Generated by vasp2cif'
_cell_length_a    5.99757279866
_cell_length_b    4.61861077863
_cell_length_c    4.57297024114
_cell_angle_alpha    84.5934113795
_cell_angle_beta    100.49962655
_cell_angle_gamma    99.2091941691
_symmetry_space_group_name_H-M    'P 1'
loop_
_atom_site_label
_atom_site_type_symbol
_atom_site_fract_x
_atom_site_fract_y
_atom_site_fract_z
_atom_site_occupancy
H4   H   0.420687378423544   0.709667202110850   0.228630962989442   1.0
H5   H   0.699205288322432   0.386722012787146   0.274883467434407   1.0
H6   H   0.591105734859937   0.729681561454491   0.549772508553986   1.0
H7   H   0.118887830082159   0.401928926895358   0.467995729143531   1.0
H8   H   0.323385929866994   0.405460770751382   0.804234872024395   1.0
H9   H   0.217744266577704   0.734163457979051   0.647179416613653   1.0
H10   H   0.418039574746814   0.190232349417329   0.235407753139626   1.0
H11   H   0.592008263484210   0.210155423573134   0.596405425626877   1.0
C12   C   0.263984997892059   0.529287823298461   0.598909857875896   1.0
C13   C   0.550040399421491   0.324236862986069   0.380766398095467   1.0
N15   N   0.458856299084431   0.594422508730084   0.430870218366472   1.0
