data_1
_audit_creation_method   'Generated by vasp2cif'
_cell_length_a    5.55869544876
_cell_length_b    4.78443251793
_cell_length_c    4.81134512203
_cell_angle_alpha    78.9611533138
_cell_angle_beta    103.124453362
_cell_angle_gamma    95.6204821351
_symmetry_space_group_name_H-M    'P 1'
loop_
_atom_site_label
_atom_site_type_symbol
_atom_site_fract_x
_atom_site_fract_y
_atom_site_fract_z
_atom_site_occupancy
H4   H   0.520204164133432   0.750444778577901   0.346503709491259   1.0
H5   H   0.704010480608886   0.363252039583457   0.245391875870574   1.0
H6   H   0.676239705549833   0.563689881320713   0.653311699312248   1.0
H7   H   0.133576628655021   0.477418070637881   0.445364807551357   1.0
H8   H   0.321894011497378   0.300712758613543   0.762729151035444   1.0
H9   H   0.278147163135010   0.674052863083027   0.725858619119798   1.0
H10   H   0.376328520374834   0.334997022984886   0.154537805881475   1.0
H11   H   0.538334885917713   0.129679268476160   0.481112180406498   1.0
C12   C   0.294657106693570   0.502549541551872   0.616282752426478   1.0
C13   C   0.537296860846944   0.328373181982180   0.329308975273321   1.0
N15   N   0.519574219737812   0.560178442928454   0.489284193752042   1.0
