data_1
_audit_creation_method   'Generated by vasp2cif'
_cell_length_a    4.86200456922
_cell_length_b    3.67706877701
_cell_length_c    7.14310594201
_cell_angle_alpha    88.489498466
_cell_angle_beta    79.9370467643
_cell_angle_gamma    80.3224670421
_symmetry_space_group_name_H-M    'P 1'
loop_
_atom_site_label
_atom_site_type_symbol
_atom_site_fract_x
_atom_site_fract_y
_atom_site_fract_z
_atom_site_occupancy
H4   H   0.185263496039447   0.303425773507833   0.571805483728525   1.0
H5   H   0.687997102063910   0.378023627000076   0.414050577487195   1.0
H6   H   0.554042105323077   0.799189837934648   0.367980090381479   1.0
H7   H   0.558995682245211   0.462123555703712   0.750371529699478   1.0
H8   H   0.739595724977619   0.821641515310596   0.652730208171263   1.0
H9   H   0.365460478765115   0.906876906233101   0.715659850914527   1.0
H10   H   0.287694490088171   0.306482275862479   0.317868387950860   1.0
H11   H   0.094753193888764   0.708800381663963   0.439550136734155   1.0
C12   C   0.547925083635626   0.704378316660069   0.660260024319712   1.0
C13   C   0.252031001604792   0.465737740876939   0.448375206854600   1.0
N15   N   0.524230486689824   0.591351124157086   0.465026906957497   1.0
