data_1
_audit_creation_method   'Generated by vasp2cif'
_cell_length_a    4.92440118251
_cell_length_b    3.6786070325
_cell_length_c    7.07355917639
_cell_angle_alpha    90.7211129573
_cell_angle_beta    79.7160870332
_cell_angle_gamma    100.49104233
_symmetry_space_group_name_H-M    'P 1'
loop_
_atom_site_label
_atom_site_type_symbol
_atom_site_fract_x
_atom_site_fract_y
_atom_site_fract_z
_atom_site_occupancy
H4   H   0.826673817506808   0.327977526417556   0.419477249578662   1.0
H5   H   0.334726702868288   0.401757578697335   0.587980288985221   1.0
H6   H   0.475937118464849   0.821381292362524   0.632395989498598   1.0
H7   H   0.445715891099645   0.490353413143232   0.249067928679395   1.0
H8   H   0.281641016198279   0.855499532813276   0.349960705431450   1.0
H9   H   0.650746582092133   0.932206153899614   0.275763554341438   1.0
H10   H   0.736034781869904   0.329959249874697   0.676535772365256   1.0
H11   H   0.927360621734117   0.733587701155216   0.547880549951792   1.0
C12   C   0.467772709762393   0.732950758302614   0.337767596071011   1.0
C13   C   0.767626354055054   0.490440440405358   0.543948498014899   1.0
N15   N   0.498333011560604   0.616706618306843   0.533353805910899   1.0
