data_1
_audit_creation_method   'Generated by vasp2cif'
_cell_length_a    4.91180080179
_cell_length_b    3.7124562163
_cell_length_c    7.05366086503
_cell_angle_alpha    90.3411419494
_cell_angle_beta    80.0226099681
_cell_angle_gamma    100.817141241
_symmetry_space_group_name_H-M    'P 1'
loop_
_atom_site_label
_atom_site_type_symbol
_atom_site_fract_x
_atom_site_fract_y
_atom_site_fract_z
_atom_site_occupancy
H4   H   0.811178625907623   0.292721500846270   0.409199371681048   1.0
H5   H   0.324176007426772   0.373130723927538   0.580083156262589   1.0
H6   H   0.472837110396043   0.787514321910457   0.624372003048101   1.0
H7   H   0.428347366843177   0.464520891879545   0.241164021612796   1.0
H8   H   0.274964196309732   0.832928461241977   0.342134096513057   1.0
H9   H   0.643768586739000   0.898142007524356   0.265443777304185   1.0
H10   H   0.727085392927968   0.295569240282866   0.666778900666337   1.0
H11   H   0.921577778849027   0.694028179309960   0.535038121203691   1.0
C12   C   0.457751133104921   0.704713133810380   0.329136502436768   1.0
C13   C   0.757718180320779   0.455048263108488   0.533546075672767   1.0
N15   N   0.489735723767645   0.585630789889422   0.524744083227539   1.0
