data_1
_audit_creation_method   'Generated by vasp2cif'
_cell_length_a    6.52425907741
_cell_length_b    3.5794081564
_cell_length_c    5.74251089931
_cell_angle_alpha    98.4348010779
_cell_angle_beta    97.1893898056
_cell_angle_gamma    105.922355662
_symmetry_space_group_name_H-M    'P 1'
loop_
_atom_site_label
_atom_site_type_symbol
_atom_site_fract_x
_atom_site_fract_y
_atom_site_fract_z
_atom_site_occupancy
H4   H   0.431834459324492   0.586456170710974   0.183172459370290   1.0
H5   H   0.553123642520099   0.899089051071726   0.619241421011132   1.0
H6   H   0.634365595217005   0.322372903854223   0.542972809228900   1.0
H7   H   0.180828164395777   0.830771120086176   0.505335778454331   1.0
H8   H   0.315326285856550   0.312001311182350   0.667735560492261   1.0
H9   H   0.247849912194127   0.228715961089293   0.349513146390940   1.0
H10   H   0.714739350784988   0.828585973958631   0.287614961834500   1.0
H11   H   0.548055510690389   0.061069146474758   0.127839810141602   1.0
C12   C   0.297904351852431   0.110659774525217   0.501831284119710   1.0
C13   C   0.554699088106943   0.866915882463516   0.254235375081194   1.0
N15   N   0.516003043955500   0.054327167394021   0.488803329885336   1.0
