data_1
_audit_creation_method   'Generated by vasp2cif'
_cell_length_a    5.06604502746
_cell_length_b    5.1835258895
_cell_length_c    5.21266752768
_cell_angle_alpha    88.4222896438
_cell_angle_beta    104.256066302
_cell_angle_gamma    75.9694493616
_symmetry_space_group_name_H-M    'P 1'
loop_
_atom_site_label
_atom_site_type_symbol
_atom_site_fract_x
_atom_site_fract_y
_atom_site_fract_z
_atom_site_occupancy
C1   C   0.323672801238814   0.413189710903921   0.592832483746058   1.0
C2   C   0.518144438856325   0.527185446482548   0.480833461394127   1.0
H3   H   0.736533744509920   0.490991906606112   0.192301149009772   1.0
H4   H   0.731091786325656   0.822099612383596   0.518086168196362   1.0
H5   H   0.336473952816782   0.208025200554111   0.550279732353417   1.0
H6   H   0.109052223001804   0.529934330190251   0.502423603095274   1.0
H7   H   0.362777273392567   0.426798080951961   0.805219931669100   1.0
H8   H   0.540442239800782   0.803366855675939   0.747766087010625   1.0
H9   H   0.547946646595541   0.257057106755028   0.209186651233068   1.0
N13   N   0.595600240128952   0.428380353802794   0.272591616593353   1.0
N14   N   0.590214973216234   0.739696157288627   0.578376659895014   1.0
