data_1
_audit_creation_method   'Generated by vasp2cif'
_cell_length_a    5.03186987517
_cell_length_b    5.27125952256
_cell_length_c    5.18767546249
_cell_angle_alpha    91.7562847089
_cell_angle_beta    104.153858836
_cell_angle_gamma    104.243224487
_symmetry_space_group_name_H-M    'P 1'
loop_
_atom_site_label
_atom_site_type_symbol
_atom_site_fract_x
_atom_site_fract_y
_atom_site_fract_z
_atom_site_occupancy
C1   C   0.672763249688543   0.505676492688835   0.517736742784578   1.0
C2   C   0.495336473179201   0.629300600307133   0.644430780731433   1.0
H3   H   0.284185875363640   0.593664496145230   0.940978660313014   1.0
H4   H   0.278477666489181   0.916872461541026   0.611301841218108   1.0
H5   H   0.829607909481673   0.442570099401315   0.666692440543024   1.0
H6   H   0.779950168174423   0.636740426412508   0.396659812581454   1.0
H7   H   0.537886871498202   0.332086539724742   0.388875440888022   1.0
H8   H   0.470727214164626   0.901025574062928   0.378934191368131   1.0
H9   H   0.480099861059557   0.369350496743138   0.923320546126632   1.0
N13   N   0.425834300959920   0.534387455876505   0.858379414832164   1.0
N14   N   0.418025820637709   0.835778377737434   0.546836634868448   1.0
