data_1
_audit_creation_method   'Generated by vasp2cif'
_cell_length_a    5.02275457391
_cell_length_b    5.41555624322
_cell_length_c    4.97782928207
_cell_angle_alpha    81.085775869
_cell_angle_beta    104.699257428
_cell_angle_gamma    87.8723284084
_symmetry_space_group_name_H-M    'P 1'
loop_
_atom_site_label
_atom_site_type_symbol
_atom_site_fract_x
_atom_site_fract_y
_atom_site_fract_z
_atom_site_occupancy
C1   C   0.617007416011965   0.482738474503861   0.387276598284267   1.0
C2   C   0.494155193671865   0.624091584453573   0.564621972157560   1.0
H3   H   0.224952432991031   0.614706756004693   0.816800620019784   1.0
H4   H   0.529478393687072   0.934937526786477   0.750429695161998   1.0
H5   H   0.654959238848811   0.608766520697280   0.210700078271948   1.0
H6   H   0.488566605590400   0.339041771042496   0.311192157296091   1.0
H7   H   0.815154794470274   0.390958926348496   0.513489017093605   1.0
H8   H   0.740651703388146   0.907120485223857   0.528154833023926   1.0
H9   H   0.250067892372364   0.353476899640000   0.652514452885818   1.0
N13   N   0.310503928403854   0.524594590066300   0.688486353373186   1.0
N14   N   0.577500484769587   0.847492210817215   0.599262104661342   1.0
