data_1
_audit_creation_method   'Generated by vasp2cif'
_cell_length_a    7.73115147785
_cell_length_b    3.49098770208
_cell_length_c    4.86862692742
_cell_angle_alpha    99.0218190118
_cell_angle_beta    87.8006962378
_cell_angle_gamma    93.8264714873
_symmetry_space_group_name_H-M    'P 1'
loop_
_atom_site_label
_atom_site_type_symbol
_atom_site_fract_x
_atom_site_fract_y
_atom_site_fract_z
_atom_site_occupancy
C1   C   0.368535598780511   0.803032402096754   0.375451125533310   1.0
C2   C   0.526978732327031   0.753344193049244   0.527923490297781   1.0
H3   H   0.690430026532553   0.019433336038581   0.266460715293448   1.0
H4   H   0.790845655989692   0.833885578970673   0.528200568505987   1.0
H5   H   0.311327117649391   0.517120951371744   0.292876929944235   1.0
H6   H   0.271708334449627   0.949483019105891   0.514477785013192   1.0
H7   H   0.400864871981795   0.959976441691133   0.202783213896531   1.0
H8   H   0.615915827192183   0.495559212794817   0.842404506927267   1.0
H9   H   0.392049402056195   0.464703228524115   0.806371978940284   1.0
N13   N   0.679523899539070   0.871570726430328   0.432363078273497   1.0
N14   N   0.510603683648704   0.584028184294418   0.753976354017240   1.0
