data_1
_audit_creation_method   'Generated by vasp2cif'
_cell_length_a    4.7769415163
_cell_length_b    3.47290032782
_cell_length_c    8.37465592266
_cell_angle_alpha    109.773902456
_cell_angle_beta    87.6348980134
_cell_angle_gamma    97.9990765067
_symmetry_space_group_name_H-M    'P 1'
loop_
_atom_site_label
_atom_site_type_symbol
_atom_site_fract_x
_atom_site_fract_y
_atom_site_fract_z
_atom_site_occupancy
C1   C   0.363391877933836   0.545459795845716   0.628761095327782   1.0
C2   C   0.504979206172223   0.321120977384346   0.469073257950591   1.0
H3   H   0.482067451617496   0.113023515737844   0.210190284953761   1.0
H4   H   0.224047835843535   0.417140269582852   0.312606149171522   1.0
H5   H   0.288633677279982   0.329240071810780   0.694362899619456   1.0
H6   H   0.510928173527461   0.787069010469445   0.713978786946328   1.0
H7   H   0.183388529689274   0.673625686853306   0.601574121938519   1.0
H8   H   0.820313790801521   0.960188720814415   0.374483877280788   1.0
H9   H   0.800601375284486   0.170646878875040   0.595776720729297   1.0
N13   N   0.393899037878803   0.276192474806258   0.321619240621125   1.0
N14   N   0.738521114444602   0.163094589367041   0.479289427486911   1.0
