data_1
_audit_creation_method   'Generated by vasp2cif'
_cell_length_a    8.43148701188
_cell_length_b    3.51318955582
_cell_length_c    4.33571959381
_cell_angle_alpha    90.1297288721
_cell_angle_beta    89.8890878643
_cell_angle_gamma    87.8254879575
_symmetry_space_group_name_H-M    'P 1'
loop_
_atom_site_label
_atom_site_type_symbol
_atom_site_fract_x
_atom_site_fract_y
_atom_site_fract_z
_atom_site_occupancy
C1   C   0.633018864367929   0.891876515718671   0.573294282884815   1.0
C2   C   0.490086776220542   0.733134531094138   0.425712916104941   1.0
H3   H   0.324334711130550   0.940957528662113   0.739318867303101   1.0
H4   H   0.255933616491724   0.624622613836044   0.464326459839312   1.0
H5   H   0.711424331889985   0.657484443736262   0.651785374920935   1.0
H6   H   0.700641558931753   0.053641634594105   0.409279293550972   1.0
H7   H   0.600912226228344   0.066943662336757   0.770379589778227   1.0
H8   H   0.413677478116219   0.418737984798802   0.068738076241138   1.0
H9   H   0.623048485668826   0.485696786874347   0.090802830192742   1.0
N13   N   0.348341829524298   0.763650640506725   0.556614184746092   1.0
N14   N   0.509487292946599   0.547340441435487   0.162901328973680   1.0
