data_1
_audit_creation_method   'Generated by vasp2cif'
_cell_length_a    4.60847210771
_cell_length_b    4.62855595649
_cell_length_c    4.953037368
_cell_angle_alpha    90.3854945204
_cell_angle_beta    106.140429644
_cell_angle_gamma    89.5305583789
_symmetry_space_group_name_H-M    'P 1'
loop_
_atom_site_label
_atom_site_type_symbol
_atom_site_fract_x
_atom_site_fract_y
_atom_site_fract_z
_atom_site_occupancy
H4   H   0.397770477946708   0.494834933759030   0.184662264765727   1.0
H5   H   0.662921104747575   0.320955005178469   0.435518421675390   1.0
H6   H   0.649720010439800   0.687838048195935   0.430688517884171   1.0
H7   H   0.197190371177889   0.295974223602904   0.550622422810477   1.0
H8   H   0.464730082874482   0.508747841325807   0.793698977353600   1.0
H9   H   0.172414947497252   0.682644589979013   0.537997530872509   1.0
C10   C   0.321165077675332   0.496512407189819   0.581643965241270   1.0
N12   N   0.523436891336885   0.500704777315050   0.391027480557980   1.0
