data_1
_audit_creation_method   'Generated by vasp2cif'
_cell_length_a    4.50969245177
_cell_length_b    4.47090807163
_cell_length_c    5.13864236769
_cell_angle_alpha    90.821668599
_cell_angle_beta    80.4841943066
_cell_angle_gamma    91.0297916877
_symmetry_space_group_name_H-M    'P 1'
loop_
_atom_site_label
_atom_site_type_symbol
_atom_site_fract_x
_atom_site_fract_y
_atom_site_fract_z
_atom_site_occupancy
H4   H   0.233353264378614   0.336147640711005   0.476168426234331   1.0
H5   H   0.534285841166657   0.497354507093036   0.296416607120989   1.0
H6   H   0.275260792977214   0.711662109369712   0.474383866420318   1.0
H7   H   0.665883827421901   0.269705501906763   0.676247849195427   1.0
H8   H   0.743847638383166   0.661218169430889   0.655216702979516   1.0
H9   H   0.426330173284455   0.525534078016094   0.877022636738459   1.0
C10   C   0.568930187471857   0.490230430820510   0.688685415522983   1.0
N12   N   0.386912946395228   0.511572321926025   0.471710613989508   1.0
