data_1
_audit_creation_method   'Generated by vasp2cif'
_cell_length_a    4.35428280744
_cell_length_b    3.57995489015
_cell_length_c    6.43528475801
_cell_angle_alpha    84.7331817078
_cell_angle_beta    89.3940870158
_cell_angle_gamma    90.0156556155
_symmetry_space_group_name_H-M    'P 1'
loop_
_atom_site_label
_atom_site_type_symbol
_atom_site_fract_x
_atom_site_fract_y
_atom_site_fract_z
_atom_site_occupancy
H4   H   0.280368073327153   0.742564279048253   0.405535625986353   1.0
H5   H   0.668285866702504   0.734256560850433   0.394055268717914   1.0
H6   H   0.475461189149442   0.106486986881023   0.291422300208907   1.0
H7   H   0.492811084433583   0.867512238330384   0.742713305546701   1.0
H8   H   0.703972632898932   0.245461462147759   0.610369972859786   1.0
H9   H   0.294463120369073   0.262980463904704   0.621944010302428   1.0
C10   C   0.493617069434947   0.084084229848571   0.614313347404476   1.0
N12   N   0.477969609244461   0.902349169948401   0.414885134396251   1.0
