data_1
_audit_creation_method   'Generated by vasp2cif'
_cell_length_a    4.71805199638
_cell_length_b    3.67147437471
_cell_length_c    6.63373114623
_cell_angle_alpha    105.974687484
_cell_angle_beta    84.6027294275
_cell_angle_gamma    71.7530742583
_symmetry_space_group_name_H-M    'P 1'
loop_
_atom_site_label
_atom_site_type_symbol
_atom_site_fract_x
_atom_site_fract_y
_atom_site_fract_z
_atom_site_occupancy
H4   H   0.797230600604635   0.227663771771375   0.448083083921915   1.0
H5   H   0.580444286218622   0.595275547928189   0.681413042656075   1.0
H6   H   0.795794023765446   0.688286382231119   0.499566546626305   1.0
H7   H   0.330245705707298   0.359427575234001   0.360730992458045   1.0
H8   H   0.227268049000976   0.888375688159634   0.501185650561268   1.0
H9   H   0.486446158337650   0.664299980473260   0.254505361922689   1.0
C10   C   0.404947308522125   0.615247807824026   0.399119312596575   1.0
N12   N   0.659158895982515   0.527707554640102   0.519276861904011   1.0
