data_1
_audit_creation_method   'Generated by vasp2cif'
_cell_length_a    6.34850046122
_cell_length_b    3.57935646572
_cell_length_c    4.57996386801
_cell_angle_alpha    78.3482754897
_cell_angle_beta    94.863522106
_cell_angle_gamma    90.3538716646
_symmetry_space_group_name_H-M    'P 1'
loop_
_atom_site_label
_atom_site_type_symbol
_atom_site_fract_x
_atom_site_fract_y
_atom_site_fract_z
_atom_site_occupancy
H4   H   0.378063764458837   0.001209754981652   0.269254830687856   1.0
H5   H   0.621722735829216   0.026038106235333   0.442397858529368   1.0
H6   H   0.518098740228012   0.405802518409715   0.212248776367431   1.0
H7   H   0.355725591573545   0.042009739562523   0.786841226446001   1.0
H8   H   0.495332981181171   0.477273358052393   0.719666458227849   1.0
H9   H   0.238563027265023   0.448718574778482   0.536764867503486   1.0
C10   C   0.384273734068529   0.294892062695858   0.623477376738968   1.0
N12   N   0.480213844096880   0.171528457474665   0.370966410477642   1.0
