data_1
_audit_creation_method   'Generated by vasp2cif'
_cell_length_a    5.70447642042
_cell_length_b    4.25733708693
_cell_length_c    6.12855583661
_cell_angle_alpha    46.8743005298
_cell_angle_beta    96.0967732386
_cell_angle_gamma    98.896384767
_symmetry_space_group_name_H-M    'P 1'
loop_
_atom_site_label
_atom_site_type_symbol
_atom_site_fract_x
_atom_site_fract_y
_atom_site_fract_z
_atom_site_occupancy
H4   H   0.636711860791273   0.508792898636869   0.550544075925401   1.0
H5   H   0.378418271947076   0.641087371259943   0.362604380285987   1.0
H6   H   0.380773528088007   0.263827862880575   0.743671724462956   1.0
H7   H   0.558670673628093   0.193918423761900   0.344738504690845   1.0
H8   H   0.573172167823159   0.802667105992370   0.744579757557375   1.0
H9   H   0.294126638076016   0.910663611832206   0.559569287769818   1.0
C10   C   0.473107858577208   0.047856270685685   0.550119367025076   1.0
N12   N   0.464450873099274   0.390804114397184   0.551800655067673   1.0
