data_1
_audit_creation_method   'Generated by vasp2cif'
_cell_length_a    4.91806872407
_cell_length_b    5.02062028909
_cell_length_c    5.02646781252
_cell_angle_alpha    97.9624806724
_cell_angle_beta    97.4482739294
_cell_angle_gamma    97.3463483936
_symmetry_space_group_name_H-M    'P 1'
loop_
_atom_site_label
_atom_site_type_symbol
_atom_site_fract_x
_atom_site_fract_y
_atom_site_fract_z
_atom_site_occupancy
C1   C   0.296565761695021   0.285956401029765   0.331543304115805   1.0
H2   H   0.044618563170033   0.270083009904809   0.623288160625023   1.0
H3   H   0.043181648896656   0.577471202598417   0.317313613992006   1.0
H4   H   0.597645473926903   0.041989597404374   0.317212257498795   1.0
H5   H   0.596222294064432   0.272376259055029   0.086340191053125   1.0
H6   H   0.278037529704790   0.576396926437766   0.085505670409923   1.0
H7   H   0.278442199058517   0.036822412840699   0.619323281058612   1.0
N11   N   0.188410736631482   0.179827670461492   0.530453138632424   1.0
N12   N   0.187837962258278   0.485911079074938   0.227177386729963   1.0
N13   N   0.503765261649541   0.182382156574001   0.227222905151237   1.0
