data_1
_audit_creation_method   'Generated by vasp2cif'
_cell_length_a    8.44070378056
_cell_length_b    3.38746096584
_cell_length_c    4.65752555831
_cell_angle_alpha    80.3080381064
_cell_angle_beta    96.3451802373
_cell_angle_gamma    113.607027376
_symmetry_space_group_name_H-M    'P 1'
loop_
_atom_site_label
_atom_site_type_symbol
_atom_site_fract_x
_atom_site_fract_y
_atom_site_fract_z
_atom_site_occupancy
C1   C   0.469838155996605   0.205361098914473   0.538332697298038   1.0
H2   H   0.356726222033068   0.359294564421106   0.842243004305317   1.0
H3   H   0.579079039072099   0.595105790192036   0.854947045341014   1.0
H4   H   0.627083451940123   0.147472996323337   0.253854548407134   1.0
H5   H   0.731577574738616   0.497278109980002   0.509680789046129   1.0
H6   H   0.220370271643219   0.790348330269602   0.551049904631206   1.0
H7   H   0.318409626096511   0.807305175906180   0.242234398721173   1.0
N11   N   0.469263562974632   0.352238279901115   0.788550621762141   1.0
N12   N   0.318054152007584   0.959353395897736   0.412720155594577   1.0
N13   N   0.618205415475771   0.306354672937530   0.414662245914840   1.0
