data_1
_audit_creation_method   'Generated by vasp2cif'
_cell_length_a    4.48245526717
_cell_length_b    4.44439779068
_cell_length_c    4.63903339059
_cell_angle_alpha    101.508187117
_cell_angle_beta    100.830840072
_cell_angle_gamma    78.5532927292
_symmetry_space_group_name_H-M    'P 1'
loop_
_atom_site_label
_atom_site_type_symbol
_atom_site_fract_x
_atom_site_fract_y
_atom_site_fract_z
_atom_site_occupancy
H4   H   0.425999601339187   0.389300505155477   0.265802190203853   1.0
H5   H   0.763016213773042   0.461193627751034   0.465959308251427   1.0
H6   H   0.442262788940351   0.745237562970191   0.471093422472393   1.0
H7   H   0.292458879028600   0.261812561500905   0.607054939297335   1.0
N9   N   0.528019452020649   0.511204971106556   0.461457008765083   1.0
