data_1
_audit_creation_method   'Generated by vasp2cif'
_cell_length_a    4.62290121214
_cell_length_b    3.72715124694
_cell_length_c    5.95086713837
_cell_angle_alpha    114.623243473
_cell_angle_beta    79.9449271882
_cell_angle_gamma    111.4094319
_symmetry_space_group_name_H-M    'P 1'
loop_
_atom_site_label
_atom_site_type_symbol
_atom_site_fract_x
_atom_site_fract_y
_atom_site_fract_z
_atom_site_occupancy
H4   H   0.546493027630575   0.843028404265660   0.307687336639603   1.0
H5   H   0.712104939146798   0.037912961619270   0.591137943086387   1.0
H6   H   0.427521039344157   0.205251987488609   0.559338464555331   1.0
H7   H   0.097254157889488   0.549040384895569   0.465981656435161   1.0
N9   N   0.512256131467545   0.958151262943645   0.498399458856106   1.0
