data_1
_audit_creation_method   'Generated by vasp2cif'
_cell_length_a    5.56702312288
_cell_length_b    3.91875956993
_cell_length_c    4.61231371393
_cell_angle_alpha    107.068636212
_cell_angle_beta    99.7852251881
_cell_angle_gamma    69.5645713676
_symmetry_space_group_name_H-M    'P 1'
loop_
_atom_site_label
_atom_site_type_symbol
_atom_site_fract_x
_atom_site_fract_y
_atom_site_fract_z
_atom_site_occupancy
H4   H   0.378961814380581   0.382303352705236   0.576338559011283   1.0
H5   H   0.684381832516010   0.215718630109769   0.483671342372006   1.0
H6   H   0.624648528984437   0.383377341679477   0.859217879459798   1.0
H7   H   0.474272647424165   0.938665099764258   0.843756703961617   1.0
N9   N   0.565535771885358   0.244375140852007   0.646650519760612   1.0
