data_1
_audit_creation_method   'Generated by vasp2cif'
_cell_length_a    5.27452116644
_cell_length_b    3.89714439344
_cell_length_c    4.71304284378
_cell_angle_alpha    114.947616068
_cell_angle_beta    93.373816102
_cell_angle_gamma    78.6503709006
_symmetry_space_group_name_H-M    'P 1'
loop_
_atom_site_label
_atom_site_type_symbol
_atom_site_fract_x
_atom_site_fract_y
_atom_site_fract_z
_atom_site_occupancy
H4   H   0.242708218315123   0.091519602060345   0.497258458806421   1.0
H5   H   0.517679418040856   0.130087593367641   0.705873343280224   1.0
H6   H   0.269940148297565   0.964714461111512   0.805089855261762   1.0
H7   H   0.339714021573791   0.469070284487849   0.341673331919516   1.0
N9   N   0.368031528530601   0.978945965096159   0.626986235701118   1.0
