data_1
_audit_creation_method   'Generated by vasp2cif'
_cell_length_a    6.16171108993
_cell_length_b    3.48106499291
_cell_length_c    4.71658970643
_cell_angle_alpha    73.0123915691
_cell_angle_beta    91.8659666414
_cell_angle_gamma    67.8308438951
_symmetry_space_group_name_H-M    'P 1'
loop_
_atom_site_label
_atom_site_type_symbol
_atom_site_fract_x
_atom_site_fract_y
_atom_site_fract_z
_atom_site_occupancy
H4   H   0.500236828799039   0.715135736800228   0.176145496673755   1.0
H5   H   0.719289041588027   0.368839625215202   0.478669638845105   1.0
H6   H   0.438820386609130   0.328274117456097   0.741891300927634   1.0
H7   H   0.522099387679802   0.878393156848396   0.479072946819372   1.0
N9   N   0.549248549215100   0.614322978742202   0.405615556749872   1.0
