data_1
_audit_creation_method   'Generated by vasp2cif'
_cell_length_a    5.27929067097
_cell_length_b    4.57961381186
_cell_length_c    4.69578129891
_cell_angle_alpha    70.7788388056
_cell_angle_beta    87.1699623952
_cell_angle_gamma    91.7301841732
_symmetry_space_group_name_H-M    'P 1'
loop_
_atom_site_label
_atom_site_type_symbol
_atom_site_fract_x
_atom_site_fract_y
_atom_site_fract_z
_atom_site_occupancy
N5   N   0.176768076922464   0.706546464321598   0.837003563203425   1.0
N6   N   0.191241577430418   0.008166499098202   0.145664030990147   1.0
H7   H   0.358771945234096   0.642450894163886   0.877339120962006   1.0
H8   H   0.375608622681362   0.963266308897666   0.192177037680203   1.0
H9   H   0.072393752023473   0.599021369716532   0.720695755135750   1.0
H10   H   0.095210960223270   0.125431433100772   0.263972534291433   1.0
H11   H   0.868410555392614   0.907958847527645   0.964572768543960   1.0
C12   C   0.068275646443048   0.876275757764084   0.980512559378056   1.0
