data_1
_audit_creation_method   'Generated by vasp2cif'
_cell_length_a    4.73690280451
_cell_length_b    5.17390720953
_cell_length_c    4.98014450762
_cell_angle_alpha    104.520766762
_cell_angle_beta    101.806245975
_cell_angle_gamma    73.1167994372
_symmetry_space_group_name_H-M    'P 1'
loop_
_atom_site_label
_atom_site_type_symbol
_atom_site_fract_x
_atom_site_fract_y
_atom_site_fract_z
_atom_site_occupancy
N5   N   0.912220223264129   0.638221258683359   0.968456843898295   1.0
N6   N   0.185739920211923   0.907728639443697   0.688467007609496   1.0
H7   H   0.220338068442729   0.851342635248407   0.875860378132671   1.0
H8   H   0.964149858549945   0.003601884885143   0.652837739533268   1.0
H9   H   0.808689760818382   0.479173361007767   0.926644256264915   1.0
H10   H   0.304028310854498   0.049424806670643   0.703086221304751   1.0
H11   H   0.862076689116137   0.052608542204737   0.176343940857827   1.0
C12   C   0.793204078999835   0.861849999920778   0.107938586964586   1.0
