data_1
_audit_creation_method   'Generated by vasp2cif'
_cell_length_a    5.51108026028
_cell_length_b    5.51098833982
_cell_length_c    5.53751724682
_cell_angle_alpha    90.6522810787
_cell_angle_beta    89.4099769067
_cell_angle_gamma    89.1817410539
_symmetry_space_group_name_H-M    'P 1'
loop_
_atom_site_label
_atom_site_type_symbol
_atom_site_fract_x
_atom_site_fract_y
_atom_site_fract_z
_atom_site_occupancy
C1   C   0.206731757939110   0.434118573396297   0.487182154086703   1.0
C2   C   0.617232893760360   0.374434827323206   0.318133518467498   1.0
C3   C   0.563976362021947   0.531180218525691   0.732491777726509   1.0
C4   C   0.456753896245452   0.787310481336895   0.386125050881588   1.0
H5   H   0.638820132070805   0.856749774537924   0.404723060898931   1.0
H6   H   0.402573147151656   0.779745606609218   0.198946374275394   1.0
H7   H   0.132605293758417   0.457471837036479   0.308168479076471   1.0
H8   H   0.506901750590558   0.310118958298205   0.169879772147112   1.0
H9   H   0.458560558532589   0.658069585287251   0.843746162929094   1.0
H10   H   0.751166834176985   0.586586916035756   0.720616523092581   1.0
H11   H   0.766051995217929   0.482484966685512   0.250756294284812   1.0
H12   H   0.327646979455381   0.893815710026153   0.493514825146050   1.0
H13   H   0.548628926969023   0.347638348376073   0.799036606553564   1.0
H14   H   0.217539206686318   0.244650903857803   0.535550632011528   1.0
H15   H   0.685824485975573   0.223091138269417   0.422422936038231   1.0
H16   H   0.102475745610541   0.536940683237347   0.621391659733042   1.0
N20   N   0.460086933279847   0.532774850101610   0.482053612257289   1.0
