data_1
_audit_creation_method   'Generated by vasp2cif'
_cell_length_a    6.35604717185
_cell_length_b    4.88655142983
_cell_length_c    4.48536287375
_cell_angle_alpha    90.1534392841
_cell_angle_beta    44.9991862936
_cell_angle_gamma    102.687430513
_symmetry_space_group_name_H-M    'P 1'
loop_
_atom_site_label
_atom_site_type_symbol
_atom_site_fract_x
_atom_site_fract_y
_atom_site_fract_z
_atom_site_occupancy
H4   H   0.467055595070157   0.683811733395217   0.230036903703422   1.0
H5   H   0.469531289322290   0.682611277643055   0.862000455065662   1.0
H6   H   0.809313766623106   0.472605493888473   0.896801985326803   1.0
H7   H   0.566261235076908   0.191427166487870   0.947770199150476   1.0
H8   H   0.815053910380698   0.475090202836618   0.516124338683056   1.0
N10   N   0.425464620054541   0.551523156084201   0.089040630812519   1.0
N11   N   0.671618695711572   0.409796618829788   0.845013592984870   1.0
