data_1
_audit_creation_method   'Generated by vasp2cif'
_cell_length_a    3.50712744159
_cell_length_b    5.0336652279
_cell_length_c    6.33512350773
_cell_angle_alpha    74.3239737983
_cell_angle_beta    113.66480012
_cell_angle_gamma    112.464301106
_symmetry_space_group_name_H-M    'P 1'
loop_
_atom_site_label
_atom_site_type_symbol
_atom_site_fract_x
_atom_site_fract_y
_atom_site_fract_z
_atom_site_occupancy
H4   H   0.444601645432407   0.514918080272444   0.578978789429804   1.0
H5   H   0.360862093224632   0.759459756705148   0.351189906963647   1.0
H6   H   0.682329321935796   0.449327284584022   0.315567994872936   1.0
H7   H   0.188282018147497   0.182594174580537   0.307728769054144   1.0
H8   H   0.198006951228472   0.476769871797636   0.101833406415594   1.0
N10   N   0.246526506050991   0.544230238395066   0.409850128271948   1.0
N11   N   0.340903712811624   0.401085099204245   0.273068293201376   1.0
