data_1
_audit_creation_method   'Generated by vasp2cif'
_cell_length_a    4.93539302231
_cell_length_b    5.25679500884
_cell_length_c    3.98720741071
_cell_angle_alpha    76.1132674532
_cell_angle_beta    67.5493524677
_cell_angle_gamma    86.355491523
_symmetry_space_group_name_H-M    'P 1'
loop_
_atom_site_label
_atom_site_type_symbol
_atom_site_fract_x
_atom_site_fract_y
_atom_site_fract_z
_atom_site_occupancy
H4   H   0.589220027308535   0.490050347748927   0.793051412817690   1.0
H5   H   0.341674968329677   0.723735352059045   0.827085262488310   1.0
H6   H   0.140198944116946   0.338558975031496   0.247204353221633   1.0
H7   H   0.403602114165452   0.328819023033056   0.431651665805653   1.0
H8   H   0.162198582436730   0.565714215942656   0.473883583814334   1.0
N10   N   0.473769153174075   0.617251777803666   0.950487747549232   1.0
N11   N   0.281855726016658   0.448633584560149   0.298653500345289   1.0
