data_1
_audit_creation_method   'Generated by vasp2cif'
_cell_length_a    5.96958231877
_cell_length_b    3.51268952846
_cell_length_c    4.86455583216
_cell_angle_alpha    106.225923667
_cell_angle_beta    102.807854192
_cell_angle_gamma    77.0154497539
_symmetry_space_group_name_H-M    'P 1'
loop_
_atom_site_label
_atom_site_type_symbol
_atom_site_fract_x
_atom_site_fract_y
_atom_site_fract_z
_atom_site_occupancy
H4   H   0.417096843246078   0.545187647046696   0.563056536650009   1.0
H5   H   0.608710952142410   0.821815674209404   0.737939715840326   1.0
H6   H   0.787340987006196   0.164379925883537   0.547741639464220   1.0
H7   H   0.662687384866480   0.241130180319878   0.212258403505345   1.0
H8   H   0.862575243607331   0.510324944329092   0.435099512369170   1.0
N10   N   0.537706532402169   0.688316705398741   0.531586606006911   1.0
N11   N   0.723792433988457   0.372425776533220   0.425072899462052   1.0
