data_1
_audit_creation_method   'Generated by vasp2cif'
_cell_length_a    6.3594496977
_cell_length_b    4.08037338335
_cell_length_c    3.5734532764
_cell_angle_alpha    87.4452256033
_cell_angle_beta    91.1264050802
_cell_angle_gamma    79.4314546752
_symmetry_space_group_name_H-M    'P 1'
loop_
_atom_site_label
_atom_site_type_symbol
_atom_site_fract_x
_atom_site_fract_y
_atom_site_fract_z
_atom_site_occupancy
H4   H   0.508234181658516   0.670341953710789   0.409642059483780   1.0
H5   H   0.426350011994430   0.710832672881367   0.841657845006637   1.0
H6   H   0.167308571223821   0.575672024047122   0.423815950219591   1.0
H7   H   0.331357352001902   0.212032729850499   0.369021410303596   1.0
H8   H   0.235510663292857   0.284752629501852   0.791714657846533   1.0
N10   N   0.475421830743464   0.539117301409881   0.645755252392654   1.0
N11   N   0.286839409294529   0.398405282084667   0.554668567513339   1.0
