data_1
_audit_creation_method   'Generated by vasp2cif'
_cell_length_a    5.39394628344
_cell_length_b    3.55959747386
_cell_length_c    5.96595905182
_cell_angle_alpha    118.203865408
_cell_angle_beta    96.8095981242
_cell_angle_gamma    68.5559424251
_symmetry_space_group_name_H-M    'P 1'
loop_
_atom_site_label
_atom_site_type_symbol
_atom_site_fract_x
_atom_site_fract_y
_atom_site_fract_z
_atom_site_occupancy
H4   H   0.484885222745532   0.730852017290012   0.793351297925959   1.0
H5   H   0.699533103530932   0.373971646739534   0.539244899406839   1.0
H6   H   0.156652784716819   0.822352938146757   0.497786590909492   1.0
H7   H   0.401783670822525   0.033270155405859   0.515775855117127   1.0
H8   H   0.392104984016065   0.523610989258493   0.273002393898430   1.0
N10   N   0.505233714591860   0.494605423510315   0.605773810412060   1.0
N11   N   0.356358697851490   0.739811260385309   0.466008934558346   1.0
