data_1
_audit_creation_method   'Generated by vasp2cif'
_cell_length_a    4.96931909989
_cell_length_b    3.54657257595
_cell_length_c    5.76844933229
_cell_angle_alpha    100.050638591
_cell_angle_beta    87.0398335263
_cell_angle_gamma    69.3190338851
_symmetry_space_group_name_H-M    'P 1'
loop_
_atom_site_label
_atom_site_type_symbol
_atom_site_fract_x
_atom_site_fract_y
_atom_site_fract_z
_atom_site_occupancy
H4   H   0.487834303508208   0.886755915401814   0.314195492882689   1.0
H5   H   0.196956149603459   0.204626168105520   0.503288609672978   1.0
H6   H   0.783793887529697   0.040728685003614   0.524890847475639   1.0
H7   H   0.508487334249040   0.514487237906252   0.561765276185611   1.0
H8   H   0.558032386009437   0.231317196453141   0.778680715500670   1.0
N10   N   0.401580081386186   0.990295249667497   0.488699088993911   1.0
N11   N   0.572985344056946   0.215431793280572   0.597757357470535   1.0
