data_1
_audit_creation_method   'Generated by vasp2cif'
_cell_length_a    5.23770108393
_cell_length_b    3.56532188467
_cell_length_c    5.32273016821
_cell_angle_alpha    82.2205940091
_cell_angle_beta    91.2455687988
_cell_angle_gamma    72.3993263038
_symmetry_space_group_name_H-M    'P 1'
loop_
_atom_site_label
_atom_site_type_symbol
_atom_site_fract_x
_atom_site_fract_y
_atom_site_fract_z
_atom_site_occupancy
H4   H   0.248587903984223   0.042038724452389   0.529982999948849   1.0
H5   H   0.463229763011263   0.933835975664429   0.784129640357826   1.0
H6   H   0.794001276540705   0.987714463400202   0.487633508595692   1.0
H7   H   0.555273230867250   0.153197789494861   0.265667738078548   1.0
H8   H   0.549000554203189   0.426675386653237   0.509118441626498   1.0
N10   N   0.443811766274948   0.903231299827191   0.597185753294049   1.0
N11   N   0.593268880376179   0.138698956469128   0.458097631734908   1.0
