data_1
_audit_creation_method   'Generated by vasp2cif'
_cell_length_a    5.13561638107
_cell_length_b    4.9171309453
_cell_length_c    3.56997147932
_cell_angle_alpha    70.18212764
_cell_angle_beta    110.586112576
_cell_angle_gamma    96.0925273139
_symmetry_space_group_name_H-M    'P 1'
loop_
_atom_site_label
_atom_site_type_symbol
_atom_site_fract_x
_atom_site_fract_y
_atom_site_fract_z
_atom_site_occupancy
N5   N   0.398837216128456   0.474703715021818   0.737617759355004   1.0
H6   H   0.207097422521038   0.479371317712939   0.513619293553987   1.0
H7   H   0.404436275994449   0.299517517231671   0.999466455798945   1.0
H8   H   0.552649930856624   0.442489965584215   0.631311450784189   1.0
H9   H   0.433121180618635   0.659704046687885   0.821050326473298   1.0
