data_1
_audit_creation_method   'Generated by vasp2cif'
_cell_length_a    4.43939889328
_cell_length_b    4.37196572501
_cell_length_c    4.65882808632
_cell_angle_alpha    76.9375734321
_cell_angle_beta    79.508045452
_cell_angle_gamma    76.570277134
_symmetry_space_group_name_H-M    'P 1'
loop_
_atom_site_label
_atom_site_type_symbol
_atom_site_fract_x
_atom_site_fract_y
_atom_site_fract_z
_atom_site_occupancy
N5   N   0.506090683547995   0.485040126153791   0.536556799328686   1.0
H6   H   0.360933840391084   0.700542869452796   0.567446178700109   1.0
H7   H   0.375590138997872   0.307664613776950   0.593158542252816   1.0
H8   H   0.605151953950369   0.500662648456483   0.317408123160895   1.0
H9   H   0.675217278155174   0.436847294974278   0.674413910071372   1.0
