data_1
_audit_creation_method   'Generated by vasp2cif'
_cell_length_a    3.56866196326
_cell_length_b    4.91589653995
_cell_length_c    5.13927095264
_cell_angle_alpha    83.9072649178
_cell_angle_beta    69.4156111459
_cell_angle_gamma    70.1862967855
_symmetry_space_group_name_H-M    'P 1'
loop_
_atom_site_label
_atom_site_type_symbol
_atom_site_fract_x
_atom_site_fract_y
_atom_site_fract_z
_atom_site_occupancy
N5   N   0.779015275099439   0.507385328409804   0.597801596534183   1.0
H6   H   0.553897023368876   0.512341406382497   0.788984439326391   1.0
H7   H   0.040875200356844   0.332542955898170   0.593320613079477   1.0
H8   H   0.674185086123934   0.474346437745489   0.443578656787430   1.0
H9   H   0.862021646737333   0.692623485637107   0.563533254832251   1.0
