data_1
_audit_creation_method   'Generated by vasp2cif'
_cell_length_a    5.41212346063
_cell_length_b    5.50608758853
_cell_length_c    5.03140417328
_cell_angle_alpha    95.5188627978
_cell_angle_beta    95.1805151943
_cell_angle_gamma    100.575629025
_symmetry_space_group_name_H-M    'P 1'
loop_
_atom_site_label
_atom_site_type_symbol
_atom_site_fract_x
_atom_site_fract_y
_atom_site_fract_z
_atom_site_occupancy
C1   C   0.394454649278472   0.373649881326116   0.720160258847756   1.0
C2   C   0.371028869119847   0.650879653852471   0.371426437693167   1.0
C3   C   0.681929539275032   0.363951256551033   0.374456886499523   1.0
H4   H   0.297135621361925   0.493912053903436   0.836984439956765   1.0
H5   H   0.291120843607203   0.771203139931742   0.509149815978994   1.0
H6   H   0.813084854370629   0.299249704117265   0.514322121635402   1.0
H7   H   0.780698149067007   0.471805098722605   0.233231574317145   1.0
H8   H   0.479156041141025   0.756151433409080   0.234578520772160   1.0
H9   H   0.672901496559618   0.660334784589288   0.650121109561852   1.0
H10   H   0.547015183560312   0.205617740076917   0.269746232325644   1.0
H11   H   0.257485025181666   0.227811539298116   0.596466927503670   1.0
H12   H   0.220287279379690   0.510432247704721   0.260832252659526   1.0
H13   H   0.523491461018509   0.290762157233303   0.842775487197365   1.0
N17   N   0.541708538878027   0.524228297598150   0.535003881934955   1.0
