data_1
_audit_creation_method   'Generated by vasp2cif'
_cell_length_a    4.81789328834
_cell_length_b    5.98827768106
_cell_length_c    5.22464014209
_cell_angle_alpha    93.3498059572
_cell_angle_beta    103.453266477
_cell_angle_gamma    93.1820793331
_symmetry_space_group_name_H-M    'P 1'
loop_
_atom_site_label
_atom_site_type_symbol
_atom_site_fract_x
_atom_site_fract_y
_atom_site_fract_z
_atom_site_occupancy
C1   C   0.636636160288319   0.624649001595024   0.334457471066109   1.0
C2   C   0.378919901296605   0.768495192280014   0.657345419283153   1.0
C3   C   0.499951808355249   0.379524405832797   0.654134564976729   1.0
H4   H   0.658659190674726   0.474738585215292   0.216288381901229   1.0
H5   H   0.312117940487916   0.905558757374578   0.537307224758912   1.0
H6   H   0.552582885888313   0.240787578908218   0.535837885429103   1.0
H7   H   0.325093553839707   0.330812712381316   0.741960428442773   1.0
H8   H   0.221235209146009   0.722383500091453   0.766489317453050   1.0
H9   H   0.225917974775257   0.529423488662367   0.348445262105912   1.0
H10   H   0.689439941047169   0.443003126133768   0.803577665342353   1.0
H11   H   0.565677997045078   0.760575631830740   0.213856749396513   1.0
H12   H   0.584251210501399   0.813103604975296   0.789927066653000   1.0
H13   H   0.833358250961254   0.678694567292055   0.478682919334950   1.0
N17   N   0.416153202259778   0.569710256322246   0.485475781971246   1.0
