data_1
_audit_creation_method   'Generated by vasp2cif'
_cell_length_a    4.87386099005
_cell_length_b    5.34005587876
_cell_length_c    5.71146963419
_cell_angle_alpha    94.6439393912
_cell_angle_beta    80.6999564352
_cell_angle_gamma    85.4696450995
_symmetry_space_group_name_H-M    'P 1'
loop_
_atom_site_label
_atom_site_type_symbol
_atom_site_fract_x
_atom_site_fract_y
_atom_site_fract_z
_atom_site_occupancy
C1   C   0.347868511565011   0.492610857288255   0.319544138729405   1.0
C2   C   0.629075268606165   0.829108109202338   0.435714122090282   1.0
C3   C   0.586798842338304   0.463344938963068   0.668160103438964   1.0
H4   H   0.242137673004841   0.623017637756114   0.219964715359062   1.0
H5   H   0.810614508687557   0.727161943148268   0.322302717443414   1.0
H6   H   0.450059155009534   0.321617974181635   0.723452998501543   1.0
H7   H   0.637126458210673   0.576208475428878   0.819365964411254   1.0
H8   H   0.517464287465685   0.951405786066090   0.333359050823312   1.0
H9   H   0.267811333653874   0.724877912421341   0.632792555898867   1.0
H10   H   0.776676840131898   0.374136424111079   0.556921934403398   1.0
H11   H   0.531059838623037   0.396988698233031   0.203756492882093   1.0
H12   H   0.687609655220015   0.932058109602252   0.587404392817277   1.0
H13   H   0.213357995088032   0.355077719372673   0.392046833476748   1.0
N17   N   0.442376597470862   0.635574578140357   0.523086301649244   1.0
