data_1
_audit_creation_method   'Generated by vasp2cif'
_cell_length_a    5.44357171683
_cell_length_b    4.12326764891
_cell_length_c    6.73074303205
_cell_angle_alpha    90.9379711239
_cell_angle_beta    83.3958650133
_cell_angle_gamma    81.3195552806
_symmetry_space_group_name_H-M    'P 1'
loop_
_atom_site_label
_atom_site_type_symbol
_atom_site_fract_x
_atom_site_fract_y
_atom_site_fract_z
_atom_site_occupancy
C1   C   0.309404478966776   0.554050268868863   0.437392094975039   1.0
C2   C   0.684557567840677   0.793613148057275   0.494257961485296   1.0
C3   C   0.504302020997415   0.473303350875227   0.763014595626913   1.0
H4   H   0.228855328311795   0.762063437545649   0.356530352756174   1.0
H5   H   0.637200891884945   0.984052193902485   0.390557408690093   1.0
H6   H   0.352383498223126   0.335486296367442   0.799754246398059   1.0
H7   H   0.522465264867336   0.628805084774896   0.890622360762684   1.0
H8   H   0.790199457182538   0.879720329772702   0.605973935598961   1.0
H9   H   0.325050934492069   0.898058490505356   0.653927496138706   1.0
H10   H   0.680042747023307   0.315728027650394   0.719120500953686   1.0
H11   H   0.438162122193297   0.385981909198577   0.334013012089777   1.0
H12   H   0.791088311379909   0.575487819355544   0.415370019810602   1.0
H13   H   0.165065114653693   0.430717836453638   0.513403004662884   1.0
N17   N   0.447493881608459   0.695068526080114   0.592433591610892   1.0
