data_1
_audit_creation_method   'Generated by vasp2cif'
_cell_length_a    4.84524823391
_cell_length_b    5.72397030623
_cell_length_c    5.35199612286
_cell_angle_alpha    94.5051596011
_cell_angle_beta    85.7301991546
_cell_angle_gamma    80.480646932
_symmetry_space_group_name_H-M    'P 1'
loop_
_atom_site_label
_atom_site_type_symbol
_atom_site_fract_x
_atom_site_fract_y
_atom_site_fract_z
_atom_site_occupancy
C1   C   0.480668943889031   0.034701029561603   0.420049123034454   1.0
C2   C   0.520708650991747   0.807511748494394   0.789025985734441   1.0
C3   C   0.242926711568806   0.686269380514001   0.451210243442976   1.0
H4   H   0.531546893980141   0.185804258608317   0.531705666493589   1.0
H5   H   0.409501437171456   0.704303397380529   0.910063043818631   1.0
H6   H   0.111001595726386   0.755995994387514   0.309554552561977   1.0
H7   H   0.133926562753728   0.589040491188282   0.581187950148376   1.0
H8   H   0.706150323661288   0.696219145641980   0.690174005796786   1.0
H9   H   0.157511853839663   0.002078725120908   0.677978417119516   1.0
H10   H   0.429299459606513   0.569398323821787   0.361635783393454   1.0
H11   H   0.671619522408065   0.922543136148963   0.332723601066716   1.0
H12   H   0.574944493194776   0.960538726866150   0.891824775784210   1.0
H13   H   0.343546715057034   0.089611554514519   0.277448667295433   1.0
N17   N   0.334398254046738   0.891585995697755   0.592454580139561   1.0
