data_1
_audit_creation_method   'Generated by vasp2cif'
_cell_length_a    4.55857488535
_cell_length_b    5.37391466773
_cell_length_c    5.60947656506
_cell_angle_alpha    92.2171610767
_cell_angle_beta    89.9492337415
_cell_angle_gamma    89.9037584765
_symmetry_space_group_name_H-M    'P 1'
loop_
_atom_site_label
_atom_site_type_symbol
_atom_site_fract_x
_atom_site_fract_y
_atom_site_fract_z
_atom_site_occupancy
H4   H   0.328080901683194   0.880812482000991   0.610209805479997   1.0
H5   H   0.716061826159226   0.626204734838396   0.259410357708731   1.0
H6   H   0.697117950019603   0.884889273146470   0.609945750450628   1.0
H7   H   0.303407741157954   0.267714466426575   0.496712014131148   1.0
H8   H   0.720301304861962   0.538019856100902   0.839326108401913   1.0
H9   H   0.329168338836062   0.541827403408405   0.853984914976955   1.0
H10   H   0.325506889159456   0.634593006769265   0.250622342779145   1.0
H11   H   0.693991600423011   0.250284199703224   0.490776935977046   1.0
C12   C   0.518706967427001   0.545608639799148   0.738173849093556   1.0
C13   C   0.516116923024121   0.604806078149522   0.359855704457537   1.0
C14   C   0.505948108737080   0.373287289950547   0.512262199605246   1.0
N16   N   0.514563639438180   0.774654524594155   0.583848404696624   1.0
