data_1
_audit_creation_method   'Generated by vasp2cif'
_cell_length_a    5.69049487382
_cell_length_b    5.27926518656
_cell_length_c    4.53370233174
_cell_angle_alpha    89.8231296209
_cell_angle_beta    87.268730441
_cell_angle_gamma    92.5828495609
_symmetry_space_group_name_H-M    'P 1'
loop_
_atom_site_label
_atom_site_type_symbol
_atom_site_fract_x
_atom_site_fract_y
_atom_site_fract_z
_atom_site_occupancy
H4   H   0.546210912590233   0.956888382017944   0.330003711260474   1.0
H5   H   0.735583951888025   0.575318965311340   0.685231378195603   1.0
H6   H   0.488071013799207   0.916004685657583   0.693480905978184   1.0
H7   H   0.406370955266119   0.286650382132912   0.295438989897171   1.0
H8   H   0.120513699743263   0.697392823711120   0.555352014818943   1.0
H9   H   0.241277524523845   0.691139121343653   0.185665188166979   1.0
H10   H   0.752183110382958   0.589218389603083   0.291043162647377   1.0
H11   H   0.360224129176714   0.332308288260848   0.683757979763328   1.0
C12   C   0.275187147138610   0.663305862730077   0.416038281464537   1.0
C13   C   0.636898866902030   0.590296944235860   0.488334144327460   1.0
C14   C   0.408769638534380   0.423177930050244   0.472883416213207   1.0
N16   N   0.490872773373354   0.827502038427625   0.491162962309744   1.0
