data_1
_audit_creation_method   'Generated by vasp2cif'
_cell_length_a    4.87860779449
_cell_length_b    5.65397964426
_cell_length_c    4.85359321776
_cell_angle_alpha    83.1766836531
_cell_angle_beta    86.2203318645
_cell_angle_gamma    99.310380911
_symmetry_space_group_name_H-M    'P 1'
loop_
_atom_site_label
_atom_site_type_symbol
_atom_site_fract_x
_atom_site_fract_y
_atom_site_fract_z
_atom_site_occupancy
H4   H   0.313870655425980   0.779506184633888   0.780496604373091   1.0
H5   H   0.376899782775595   0.711485064542480   0.208567741318824   1.0
H6   H   0.576300337097088   0.926547830490129   0.549480435511086   1.0
H7   H   0.474087957044325   0.249602334155114   0.534705541294812   1.0
H8   H   0.862188932290266   0.668367825653995   0.709096553693549   1.0
H9   H   0.577736432775524   0.482428162754225   0.920990088910415   1.0
H10   H   0.139297229603635   0.519622892124083   0.468856483409731   1.0
H11   H   0.733833165543039   0.449983702097875   0.310467423220992   1.0
C12   C   0.649561403949598   0.577819915037232   0.717223175859111   1.0
C13   C   0.352769440602792   0.604025094384525   0.409449465411683   1.0
C14   C   0.567220833313954   0.437182465728753   0.473818291609248   1.0
N16   N   0.461209097029545   0.760929542655944   0.628970510584580   1.0
