data_1
_audit_creation_method   'Generated by vasp2cif'
_cell_length_a    7.26259659185
_cell_length_b    4.51969154206
_cell_length_c    4.42122267566
_cell_angle_alpha    107.657912568
_cell_angle_beta    79.2810077737
_cell_angle_gamma    89.150235354
_symmetry_space_group_name_H-M    'P 1'
loop_
_atom_site_label
_atom_site_type_symbol
_atom_site_fract_x
_atom_site_fract_y
_atom_site_fract_z
_atom_site_occupancy
H4   H   0.676464917999517   0.026310064113467   0.956569364038103   1.0
H5   H   0.283646888106084   0.263678947995736   0.029640165929244   1.0
H6   H   0.349981988957211   0.888667386256067   0.960719774938752   1.0
H7   H   0.477123204159497   0.846588346245909   0.400781592961295   1.0
H8   H   0.318249326889756   0.180990031313556   0.492235187760613   1.0
H9   H   0.577464734129975   0.524262015612877   0.659700375052104   1.0
H10   H   0.737249113189478   0.189665759451032   0.460340112737654   1.0
H11   H   0.571623727675089   0.409096085154893   0.164338318817720   1.0
C12   C   0.436380802175805   0.082866949267434   0.557740091138605   1.0
C13   C   0.580864418742479   0.210392945146502   0.952093134240094   1.0
C14   C   0.605689012726323   0.278546481550826   0.628641801705328   1.0
N16   N   0.389479872631405   0.090037905263991   0.908609573404824   1.0
