data_1
_audit_creation_method   'Generated by vasp2cif'
_cell_length_a    7.21054790169
_cell_length_b    4.5389033652
_cell_length_c    4.41854768404
_cell_angle_alpha    107.116896359
_cell_angle_beta    80.0337642838
_cell_angle_gamma    88.5187268328
_symmetry_space_group_name_H-M    'P 1'
loop_
_atom_site_label
_atom_site_type_symbol
_atom_site_fract_x
_atom_site_fract_y
_atom_site_fract_z
_atom_site_occupancy
H4   H   0.416398135706890   0.906021126670722   0.865770625650287   1.0
H5   H   0.621728403396472   0.442752409210266   0.076446532793989   1.0
H6   H   0.698092484565486   0.074655327672180   0.010450672732846   1.0
H7   H   0.658936646225333   0.148215349781213   0.544497522203758   1.0
H8   H   0.496173076546138   0.478111190862369   0.631421342438260   1.0
H9   H   0.238027583324454   0.139117789822907   0.562231910951404   1.0
H10   H   0.399266228534326   0.804762161201164   0.380022438860688   1.0
H11   H   0.299825308717503   0.281614205518994   0.054924586694900   1.0
C12   C   0.539454035033161   0.244581785525444   0.475745930414393   1.0
C13   C   0.398974286997777   0.107609071016763   0.073489317005874   1.0
C14   C   0.371369920600998   0.047382665809108   0.401019013403688   1.0
N16   N   0.587198570428233   0.239720437795666   0.126511047039609   1.0
