data_1
_audit_creation_method   'Generated by vasp2cif'
_cell_length_a    6.56603879556
_cell_length_b    4.87019946227
_cell_length_c    4.43293612625
_cell_angle_alpha    81.3368366386
_cell_angle_beta    94.9071039912
_cell_angle_gamma    81.5164742206
_symmetry_space_group_name_H-M    'P 1'
loop_
_atom_site_label
_atom_site_type_symbol
_atom_site_fract_x
_atom_site_fract_y
_atom_site_fract_z
_atom_site_occupancy
H4   H   0.712607922812552   0.175556447510147   0.115166216435554   1.0
H5   H   0.291851426245593   0.055965008062579   0.998851341107788   1.0
H6   H   0.524505098505344   0.831471436208403   0.040521859688006   1.0
H7   H   0.532256696238434   0.905801987544095   0.515771390383115   1.0
H8   H   0.292613801891910   0.147609960844008   0.474523563616991   1.0
H9   H   0.486918956281030   0.530463761453476   0.526563355413266   1.0
H10   H   0.726456553366326   0.299061174440560   0.561046647684364   1.0
H11   H   0.473782960449547   0.417225612647364   0.081172146405173   1.0
C12   C   0.448347881473389   0.086127775643469   0.593725431331841   1.0
C13   C   0.565237483516796   0.259567107456597   0.980924345662665   1.0
C14   C   0.572275491018203   0.327101466666974   0.633614018809858   1.0
N16   N   0.440854186102975   0.023070601176137   0.939033336537257   1.0
