data_1
_audit_creation_method   'Generated by vasp2cif'
_cell_length_a    5.43534268815
_cell_length_b    3.69930701645
_cell_length_c    7.04998193535
_cell_angle_alpha    78.4083263172
_cell_angle_beta    93.7178117481
_cell_angle_gamma    111.037052517
_symmetry_space_group_name_H-M    'P 1'
loop_
_atom_site_label
_atom_site_type_symbol
_atom_site_fract_x
_atom_site_fract_y
_atom_site_fract_z
_atom_site_occupancy
H4   H   0.963060782534927   0.073182998458758   0.497889528091895   1.0
H5   H   0.316350450861415   0.212951961226378   0.288934778627141   1.0
H6   H   0.428185413358391   0.678765302716929   0.304980955922005   1.0
H7   H   0.590323425998806   0.054402173601126   0.526811407825403   1.0
H8   H   0.702335737153835   0.542374648659798   0.569367702937195   1.0
H9   H   0.358951610106846   0.359854660528277   0.811314070265282   1.0
H10   H   0.234719156315715   0.873722106710993   0.769851551176890   1.0
H11   H   0.090767479741013   0.561842432843405   0.538568804452333   1.0
C12   C   0.530969016578186   0.289494259066633   0.552235033994624   1.0
C13   C   0.136650551971461   0.302460974957101   0.535281622950112   1.0
C14   C   0.308214740464391   0.181513599265279   0.700184050921255   1.0
N16   N   0.356460797720437   0.396799851618909   0.388065836662648   1.0
