data_1
_audit_creation_method   'Generated by vasp2cif'
_cell_length_a    6.998968518
_cell_length_b    3.70144894971
_cell_length_c    5.43640681739
_cell_angle_alpha    70.8865268755
_cell_angle_beta    95.0186841671
_cell_angle_gamma    101.899343231
_symmetry_space_group_name_H-M    'P 1'
loop_
_atom_site_label
_atom_site_type_symbol
_atom_site_fract_x
_atom_site_fract_y
_atom_site_fract_z
_atom_site_occupancy
H4   H   0.536848810534757   0.402705626945995   0.865967156009859   1.0
H5   H   0.284530784121237   0.638496400488009   0.556122540120036   1.0
H6   H   0.287496318858125   0.983684760781053   0.687983045438123   1.0
H7   H   0.533071266217938   0.047565675008542   0.267325824819835   1.0
H8   H   0.510927040700324   0.420921169618097   0.392191894690996   1.0
H9   H   0.774707068135420   0.231392153508018   0.717837273285184   1.0
H10   H   0.798378225795346   0.873469196485722   0.580937138818214   1.0
H11   H   0.514564003306958   0.758800395822419   0.006309172369612   1.0
C12   C   0.533641413693189   0.125206122533392   0.442206892439025   1.0
C13   C   0.536372904382738   0.708016138296230   0.827298859926096   1.0
C14   C   0.694662970506165   0.001631853375891   0.645922601156975   1.0
N16   N   0.376775237296769   0.842503684969444   0.627317775754001   1.0
