data_1
_audit_creation_method   'Generated by vasp2cif'
_cell_length_a    7.01660640333
_cell_length_b    3.70704943956
_cell_length_c    5.38996172906
_cell_angle_alpha    108.826641141
_cell_angle_beta    94.5855244954
_cell_angle_gamma    78.3760539919
_symmetry_space_group_name_H-M    'P 1'
loop_
_atom_site_label
_atom_site_type_symbol
_atom_site_fract_x
_atom_site_fract_y
_atom_site_fract_z
_atom_site_occupancy
H4   H   0.460064045066496   0.404611121493552   0.143949225837275   1.0
H5   H   0.703909746896180   0.646030126898374   0.462305030329468   1.0
H6   H   0.705536430479661   0.991119200764025   0.332578245274220   1.0
H7   H   0.447225770053073   0.050433407092768   0.743551395584717   1.0
H8   H   0.474599753209155   0.422761442805886   0.619004171979761   1.0
H9   H   0.221207345800799   0.227236962528238   0.280000923158255   1.0
H10   H   0.191535551125298   0.872216242534748   0.417918391107619   1.0
H11   H   0.487012674197267   0.757369930912795   0.001411161039393   1.0
C12   C   0.452794507031214   0.127260895256178   0.567923056122360   1.0
C13   C   0.459837012551041   0.708925247973390   0.181097317768796   1.0
C14   C   0.297687678907444   0.000324977967402   0.356481791554579   1.0
N16   N   0.613823750918421   0.847971561150423   0.388322803031215   1.0
