data_1
_audit_creation_method   'Generated by vasp2cif'
_cell_length_a    7.07556902484
_cell_length_b    3.70946229327
_cell_length_c    5.31861648691
_cell_angle_alpha    71.4516576602
_cell_angle_beta    93.9483738237
_cell_angle_gamma    101.478968266
_symmetry_space_group_name_H-M    'P 1'
loop_
_atom_site_label
_atom_site_type_symbol
_atom_site_fract_x
_atom_site_fract_y
_atom_site_fract_z
_atom_site_occupancy
H4   H   0.520003206508093   0.424716110238855   0.852149995703620   1.0
H5   H   0.291518921845011   0.672370677435062   0.518672896779108   1.0
H6   H   0.281942406888255   0.018195204971605   0.643912358386899   1.0
H7   H   0.558227842752544   0.073756694375632   0.248497232787067   1.0
H8   H   0.523924380235485   0.445190097330347   0.372355533151342   1.0
H9   H   0.760200995866022   0.241873576243790   0.730501575861844   1.0
H10   H   0.797704846715391   0.888674227686245   0.593024234914033   1.0
H11   H   0.486530468315713   0.775799554792926   0.995146302520048   1.0
C12   C   0.543727477943982   0.149063563684898   0.425203765957761   1.0
C13   C   0.521668567308268   0.728822946864327   0.815380907726492   1.0
C14   C   0.688919081613477   0.017536637330387   0.648345945712379   1.0
N16   N   0.377273687144992   0.872961073753878   0.596646405515528   1.0
