data_1
_audit_creation_method   'Generated by vasp2cif'
_cell_length_a    3.67851976532
_cell_length_b    4.8128033162
_cell_length_c    7.65586032365
_cell_angle_alpha    85.2243714852
_cell_angle_beta    94.5031749109
_cell_angle_gamma    102.116559845
_symmetry_space_group_name_H-M    'P 1'
loop_
_atom_site_label
_atom_site_type_symbol
_atom_site_fract_x
_atom_site_fract_y
_atom_site_fract_z
_atom_site_occupancy
H4   H   0.693386353343392   0.961648347029815   0.168434212787247   1.0
H5   H   0.968531424511028   0.781127808052098   0.525543056391591   1.0
H6   H   0.526843029086102   0.730501835189656   0.447418963633538   1.0
H7   H   0.463187609140377   0.153034925509026   0.560000856311781   1.0
H8   H   0.934843019255503   0.195353427657587   0.635199098436132   1.0
H9   H   0.129309591701869   0.467259921983263   0.358440374461246   1.0
H10   H   0.662483420959028   0.421239701496219   0.272637615574098   1.0
H11   H   0.165612802568049   0.006089550002379   0.243442104343920   1.0
C12   C   0.741823986869633   0.156915944770532   0.521795163608722   1.0
C13   C   0.893957417682593   0.034818435978273   0.274422853147627   1.0
C14   C   0.866228149332294   0.318085359508714   0.347203327319832   1.0
N16   N   0.772386219872295   0.876203783494056   0.450012394738018   1.0
