data_1
_audit_creation_method   'Generated by vasp2cif'
_cell_length_a    6.68325307864
_cell_length_b    4.87121099409
_cell_length_c    4.46793608901
_cell_angle_alpha    69.7039526874
_cell_angle_beta    89.347626083
_cell_angle_gamma    83.087317509
_symmetry_space_group_name_H-M    'P 1'
loop_
_atom_site_label
_atom_site_type_symbol
_atom_site_fract_x
_atom_site_fract_y
_atom_site_fract_z
_atom_site_occupancy
H4   H   0.388696214313638   0.836542435220815   0.923693349970555   1.0
H5   H   0.457704097798939   0.429227977313993   0.851519284903765   1.0
H6   H   0.633660733506461   0.133756034901758   0.963200661137914   1.0
H7   H   0.596924770009464   0.085160017118460   0.481059408793745   1.0
H8   H   0.382676733249673   0.369077208281191   0.367325783487571   1.0
H9   H   0.163835255781865   0.968329302145732   0.451493857714070   1.0
H10   H   0.381552804350774   0.713282887061745   0.494523604939161   1.0
H11   H   0.192016764715075   0.138271113330293   0.866093714699871   1.0
C12   C   0.455536732071199   0.166670271266167   0.344851784265009   1.0
C13   C   0.326248627978291   0.012743354342106   0.001039827836364   1.0
C14   C   0.312664891998375   0.935614937545773   0.362443800660355   1.0
N16   N   0.487022063725508   0.213885231340760   0.993757120623128   1.0
