data_1
_audit_creation_method   'Generated by vasp2cif'
_cell_length_a    6.88136294281
_cell_length_b    4.60515436888
_cell_length_c    4.48077588044
_cell_angle_alpha    106.508666946
_cell_angle_beta    85.1757276334
_cell_angle_gamma    87.4657474485
_symmetry_space_group_name_H-M    'P 1'
loop_
_atom_site_label
_atom_site_type_symbol
_atom_site_fract_x
_atom_site_fract_y
_atom_site_fract_z
_atom_site_occupancy
H4   H   0.368993110459463   0.975373024940346   0.610873411508891   1.0
H5   H   0.554279784444326   0.523618404302916   0.878734177537886   1.0
H6   H   0.647760011280731   0.170491342012440   0.810754753638314   1.0
H7   H   0.599046752302044   0.205900578741172   0.330248381596839   1.0
H8   H   0.419058318035091   0.517878122128415   0.398327063803578   1.0
H9   H   0.169484140356168   0.147705279928772   0.258939231256924   1.0
H10   H   0.350518338438199   0.848441025308148   0.100890408534077   1.0
H11   H   0.230457450346449   0.330357751171967   0.787274300731134   1.0
C12   C   0.474468748199577   0.296884826544805   0.244940044779156   1.0
C13   C   0.338717334673738   0.164794343648047   0.817521772949576   1.0
C14   C   0.311683710883571   0.086081691899139   0.127190049357537   1.0
N16   N   0.527636969118610   0.316648519194480   0.915183328871485   1.0
