data_1
_audit_creation_method   'Generated by vasp2cif'
_cell_length_a    4.58009681117
_cell_length_b    6.47891265081
_cell_length_c    4.56341844442
_cell_angle_alpha    85.3812837692
_cell_angle_beta    76.79112204
_cell_angle_gamma    94.6136037905
_symmetry_space_group_name_H-M    'P 1'
loop_
_atom_site_label
_atom_site_type_symbol
_atom_site_fract_x
_atom_site_fract_y
_atom_site_fract_z
_atom_site_occupancy
H4   H   0.671547250157715   0.117962963370466   0.851268391729768   1.0
H5   H   0.433655807925341   0.904534202815668   0.505935210963301   1.0
H6   H   0.104114578276992   0.493680826484557   0.482503399136007   1.0
H7   H   0.487421740938828   0.484652322440660   0.858994757335360   1.0
H8   H   0.094646958799423   0.129334547004234   0.283559402852376   1.0
C9   C   0.424889568823282   0.368035418385674   0.725915982625125   1.0
C10   C   0.406304160010180   0.063073802468935   0.541005780513380   1.0
C11   C   0.233031686007457   0.372388251868386   0.537958584252237   1.0
N13   N   0.532469343411023   0.174727701549379   0.721754446387514   1.0
N14   N   0.227465579226639   0.181455134102350   0.422750477485437   1.0
