data_1
_audit_creation_method   'Generated by vasp2cif'
_cell_length_a    4.62389154419
_cell_length_b    6.41841891758
_cell_length_c    4.54599041588
_cell_angle_alpha    95.6008818475
_cell_angle_beta    77.4714201947
_cell_angle_gamma    84.7293156996
_symmetry_space_group_name_H-M    'P 1'
loop_
_atom_site_label
_atom_site_type_symbol
_atom_site_fract_x
_atom_site_fract_y
_atom_site_fract_z
_atom_site_occupancy
H4   H   0.328510312598077   0.139961826404331   0.171724092278097   1.0
H5   H   0.587794612476657   0.954230254560557   0.537441216637092   1.0
H6   H   0.895933417618991   0.550441404026252   0.471351747835783   1.0
H7   H   0.497176611095419   0.505220386825066   0.113746922853579   1.0
H8   H   0.925481441555071   0.197414991901958   0.713530923524743   1.0
C9   C   0.569395414441566   0.400831650953293   0.259142587298520   1.0
C10   C   0.607274423833758   0.109921185842907   0.478736001078644   1.0
C11   C   0.769633825244270   0.422589940511244   0.436381325894978   1.0
N13   N   0.469169105322251   0.206363430852250   0.291540061795026   1.0
N14   N   0.787259330547379   0.240075259339754   0.573970937439881   1.0
