data_1
_audit_creation_method   'Generated by vasp2cif'
_cell_length_a    4.64147165934
_cell_length_b    5.4812761026
_cell_length_c    5.47838642703
_cell_angle_alpha    98.4709331609
_cell_angle_beta    100.241878051
_cell_angle_gamma    100.2065029
_symmetry_space_group_name_H-M    'P 1'
loop_
_atom_site_label
_atom_site_type_symbol
_atom_site_fract_x
_atom_site_fract_y
_atom_site_fract_z
_atom_site_occupancy
H4   H   0.153060314538386   0.437072913045405   0.715363278602929   1.0
H5   H   0.424972566001962   0.074900233206456   0.733270642552903   1.0
H6   H   0.644620496148441   0.418962560145275   0.131831511874914   1.0
H7   H   0.252819267053951   0.665621976400828   0.352787830665548   1.0
H8   H   0.714449659158198   0.065146095401097   0.380330384092808   1.0
C9   C   0.349873973854187   0.509895745865393   0.396235040604026   1.0
C10   C   0.430284175667900   0.200314881192767   0.600967178891757   1.0
C11   C   0.536780599511552   0.385496785316356   0.284976928419710   1.0
N13   N   0.285305114408175   0.388982899605153   0.591511928996901   1.0
N14   N   0.584036522125416   0.193978240747526   0.417369515324566   1.0
