data_1
_audit_creation_method   'Generated by vasp2cif'
_cell_length_a    4.74243577671
_cell_length_b    3.52410489925
_cell_length_c    7.97801165232
_cell_angle_alpha    87.5568616724
_cell_angle_beta    87.0508014433
_cell_angle_gamma    80.4482854352
_symmetry_space_group_name_H-M    'P 1'
loop_
_atom_site_label
_atom_site_type_symbol
_atom_site_fract_x
_atom_site_fract_y
_atom_site_fract_z
_atom_site_occupancy
H4   H   0.543010255804070   0.572690390909763   0.263256907848387   1.0
H5   H   0.141915446991582   0.180097603337636   0.688256341071465   1.0
H6   H   0.540613438278243   0.506928382718307   0.795762081590283   1.0
H7   H   0.814210130733628   0.764783127015903   0.508972867867001   1.0
H8   H   0.141401886766211   0.212016879073367   0.368771107700880   1.0
C9   C   0.505432058271587   0.479632235551122   0.665533260509378   1.0
C10   C   0.644255810034821   0.599894280396377   0.524385599020917   1.0
C11   C   0.282524342792954   0.334634846425303   0.444370251802184   1.0
N13   N   0.279872218447046   0.318972508221187   0.612567620779039   1.0
N14   N   0.501748035448337   0.506973532501142   0.388466894569056   1.0
