data_1
_audit_creation_method   'Generated by vasp2cif'
_cell_length_a    7.95095149984
_cell_length_b    3.55816195303
_cell_length_c    4.71629992667
_cell_angle_alpha    99.9160121306
_cell_angle_beta    93.1772308404
_cell_angle_gamma    87.9887255145
_symmetry_space_group_name_H-M    'P 1'
loop_
_atom_site_label
_atom_site_type_symbol
_atom_site_fract_x
_atom_site_fract_y
_atom_site_fract_z
_atom_site_occupancy
H4   H   0.225635945312341   0.762104205037154   0.431430817822943   1.0
H5   H   0.647683592544197   0.341816873873505   0.824509227066706   1.0
H6   H   0.758736021280633   0.659818307451864   0.426447212986219   1.0
H7   H   0.474484841683548   0.938760548058397   0.158125061549299   1.0
H8   H   0.327018756969110   0.391982529342790   0.828722792485117   1.0
C9   C   0.627736587030839   0.642170174411987   0.462984372734589   1.0
C10   C   0.487667381754669   0.772597245207116   0.326735786186532   1.0
C11   C   0.404233180099077   0.510515733591255   0.687609344579599   1.0
N13   N   0.572746463774742   0.483525552835836   0.687912298514945   1.0
N14   N   0.350264415729271   0.688006282535540   0.470352527958269   1.0
