data_1
_audit_creation_method   'Generated by vasp2cif'
_cell_length_a    4.65349984778
_cell_length_b    3.43428240963
_cell_length_c    8.32085928281
_cell_angle_alpha    97.5629972803
_cell_angle_beta    86.0426720018
_cell_angle_gamma    87.5754494699
_symmetry_space_group_name_H-M    'P 1'
loop_
_atom_site_label
_atom_site_type_symbol
_atom_site_fract_x
_atom_site_fract_y
_atom_site_fract_z
_atom_site_occupancy
H4   H   0.392419050360331   0.081431662921915   0.765264589375818   1.0
H5   H   0.891219949261654   0.616714540332048   0.350190643131541   1.0
H6   H   0.454965658865589   0.966903996278269   0.250962564429315   1.0
H7   H   0.125717433936870   0.289696528711815   0.528316269172443   1.0
H8   H   0.850367240236878   0.679174854569546   0.667254225157635   1.0
C9   C   0.487868959779924   0.958200634117929   0.376529370106688   1.0
C10   C   0.322885905319126   0.115493939106557   0.513111105261430   1.0
C11   C   0.706129934362984   0.807351614447981   0.591219752282029   1.0
N13   N   0.726649115788732   0.769691382915205   0.428152798725449   1.0
N14   N   0.463119517431352   0.019301178925140   0.644697980353484   1.0
