data_1
_audit_creation_method   'Generated by vasp2cif'
_cell_length_a    4.70728697465
_cell_length_b    3.54059708226
_cell_length_c    8.55089874764
_cell_angle_alpha    110.908582734
_cell_angle_beta    94.2404501268
_cell_angle_gamma    87.0462840856
_symmetry_space_group_name_H-M    'P 1'
loop_
_atom_site_label
_atom_site_type_symbol
_atom_site_fract_x
_atom_site_fract_y
_atom_site_fract_z
_atom_site_occupancy
H4   H   0.589865650600295   0.276099919894456   0.239206217747345   1.0
H5   H   0.191943709725983   0.324594958243694   0.656043409683789   1.0
H6   H   0.576744421341637   0.847476501280710   0.764721479885310   1.0
H7   H   0.872549797876388   0.777846022844308   0.485601685659425   1.0
H8   H   0.182791519660633   0.983107178851718   0.336655031074819   1.0
C9   C   0.549865812547608   0.654019523421525   0.636145556071043   1.0
C10   C   0.692958694143876   0.622244015643744   0.498909393237256   1.0
C11   C   0.324428118847251   0.214900485932738   0.413179227724115   1.0
N13   N   0.321358926405090   0.400563772924578   0.579295392622811   1.0
N14   N   0.547491591135866   0.348983737706796   0.361593772164241   1.0
