data_1
_audit_creation_method   'Generated by vasp2cif'
_cell_length_a    6.05555371585
_cell_length_b    5.69384340537
_cell_length_c    5.95367064212
_cell_angle_alpha    83.8614780144
_cell_angle_beta    76.3397465601
_cell_angle_gamma    84.9020823276
_symmetry_space_group_name_H-M    'P 1'
loop_
_atom_site_label
_atom_site_type_symbol
_atom_site_fract_x
_atom_site_fract_y
_atom_site_fract_z
_atom_site_occupancy
C1   C   0.574036461554535   0.781954899779919   0.310848426296729   1.0
C2   C   0.507842573275845   0.589177308668177   0.186339495660896   1.0
H3   H   0.655941632151297   0.512049646557337   0.067852355764479   1.0
H4   H   0.386536278956306   0.665245056210033   0.084679261755809   1.0
H5   H   0.678224535371093   0.540771621309304   0.569758236217410   1.0
H6   H   0.786853915503343   0.806726588731998   0.544397055874867   1.0
H7   H   0.427788470019529   0.446759344783750   0.308242081946474   1.0
H8   H   0.655581724805238   0.924000600135756   0.191301902219394   1.0
H9   H   0.428514001703931   0.856918251087052   0.432823370227183   1.0
H10   H   0.891589993610630   0.612302871272760   0.347711825911624   1.0
Cl11   Cl   0.568573095402733   0.167119274152988   0.762236022486938   1.0
Cl12   Cl   0.084182191955819   0.708392457717103   0.820606336533579   1.0
Cl13   Cl   0.054944637244581   0.162365497615319   0.271793956612619   1.0
N14   N   0.744562842172009   0.679792462933818   0.453494904911636   1.0
