data_1
_audit_creation_method   'Generated by vasp2cif'
_cell_length_a    8.24817000022
_cell_length_b    4.25908062065
_cell_length_c    5.84808836194
_cell_angle_alpha    79.4851168525
_cell_angle_beta    94.0511003501
_cell_angle_gamma    87.6330492141
_symmetry_space_group_name_H-M    'P 1'
loop_
_atom_site_label
_atom_site_type_symbol
_atom_site_fract_x
_atom_site_fract_y
_atom_site_fract_z
_atom_site_occupancy
C1   C   0.466438541567861   0.551937390362916   0.404129127433705   1.0
C2   C   0.406685197481380   0.689620936582898   0.608326030121994   1.0
H3   H   0.386406847982649   0.499483016362532   0.754554898886084   1.0
H4   H   0.494365145554021   0.845399956197397   0.672794533917376   1.0
H5   H   0.643780856892811   0.236567039765887   0.626814485694020   1.0
H6   H   0.723330308565686   0.554820250656917   0.484585544826388   1.0
H7   H   0.387495580454569   0.370542848078557   0.356420778125937   1.0
H8   H   0.291488600565138   0.827566110482373   0.553605965683410   1.0
H9   H   0.476008973652462   0.733969032553659   0.249154743273650   1.0
H10   H   0.669427596324617   0.266897065918563   0.338983100430191   1.0
N14   N   0.635743238614985   0.390514872038466   0.467037937119720   1.0
