data_1
_audit_creation_method   'Generated by vasp2cif'
_cell_length_a    5.96056165445
_cell_length_b    4.28457727111
_cell_length_c    8.0900317957
_cell_angle_alpha    95.0875219603
_cell_angle_beta    99.1913048063
_cell_angle_gamma    94.9260307059
_symmetry_space_group_name_H-M    'P 1'
loop_
_atom_site_label
_atom_site_type_symbol
_atom_site_fract_x
_atom_site_fract_y
_atom_site_fract_z
_atom_site_occupancy
C1   C   0.407577031085538   0.834651297370257   0.614948826014363   1.0
C2   C   0.573363451252312   0.624872075574096   0.547899339297707   1.0
H3   H   0.485756149052406   0.445367827825869   0.448682039209970   1.0
H4   H   0.695436152289410   0.771369157833711   0.493379458852544   1.0
H5   H   0.144452489161473   0.468783650709995   0.616711583815750   1.0
H6   H   0.125616404966891   0.792667484440287   0.744207086644309   1.0
H7   H   0.496782971485167   0.018258900824620   0.710718523734279   1.0
H8   H   0.668336695125305   0.510335086224138   0.648702441223399   1.0
H9   H   0.306154271426003   0.940887554553477   0.514487993156379   1.0
H10   H   0.322895563721815   0.556364101004689   0.804474777595914   1.0
N14   N   0.238746302388620   0.647669792256586   0.700017266405759   1.0
