data_1
_audit_creation_method   'Generated by vasp2cif'
_cell_length_a    5.79370495033
_cell_length_b    4.24442341996
_cell_length_c    9.24080604235
_cell_angle_alpha    64.539552068
_cell_angle_beta    98.8476531232
_cell_angle_gamma    101.157175168
_symmetry_space_group_name_H-M    'P 1'
loop_
_atom_site_label
_atom_site_type_symbol
_atom_site_fract_x
_atom_site_fract_y
_atom_site_fract_z
_atom_site_occupancy
C1   C   0.321528193176150   0.492475934643657   0.589748206315008   1.0
C2   C   0.527616143112844   0.414620239172180   0.531603227354807   1.0
H3   H   0.478174456766936   0.418769028169947   0.411953025925513   1.0
H4   H   0.682750666971337   0.612158915782189   0.524048790272957   1.0
H5   H   0.390660344217544   0.205546889557468   0.843274580268805   1.0
H6   H   0.249711376056716   0.550449355944210   0.794930818393148   1.0
H7   H   0.281842826205256   0.759736202473974   0.515824881513204   1.0
H8   H   0.578955746824484   0.156909705707221   0.612114750652559   1.0
H9   H   0.160889084973462   0.308525024268612   0.591818518824844   1.0
H10   H   0.542059342239774   0.603609776360841   0.774881551369717   1.0
Cl11   Cl   0.485551353279895   0.742603503105634   0.071554768661322   1.0
Cl12   Cl   0.930229793162404   0.704336232923076   0.833850992388058   1.0
Cl13   Cl   0.934962021403784   0.206339158416391   0.329985721703075   1.0
N14   N   0.379053632752132   0.463234640638007   0.760957540692281   1.0
