data_1
_audit_creation_method   'Generated by vasp2cif'
_cell_length_a    7.38787081582
_cell_length_b    4.45638212976
_cell_length_c    6.91310619452
_cell_angle_alpha    108.801213541
_cell_angle_beta    84.3491986475
_cell_angle_gamma    101.400064256
_symmetry_space_group_name_H-M    'P 1'
loop_
_atom_site_label
_atom_site_type_symbol
_atom_site_fract_x
_atom_site_fract_y
_atom_site_fract_z
_atom_site_occupancy
C1   C   0.570390551444405   0.494714884185626   0.475953607522683   1.0
C2   C   0.695001310011264   0.822148509900266   0.544144521101174   1.0
H3   H   0.817407167095951   0.797709789476677   0.609931321135335   1.0
H4   H   0.743968230706997   0.912735800547580   0.415487073951660   1.0
H5   H   0.431805229813158   0.568828034975866   0.242230609564672   1.0
H6   H   0.327514328195363   0.682084601342176   0.471808724422786   1.0
H7   H   0.640500577256574   0.318172487447804   0.362489057316786   1.0
H8   H   0.625035626244539   0.997258364821811   0.660739510933666   1.0
H9   H   0.519990421505788   0.407981366912978   0.605193925187876   1.0
H10   H   0.310819837733469   0.293349182119954   0.340112419250886   1.0
Cl11   Cl   0.408136776224275   0.832027106234968   0.014813985943576   1.0
Cl12   Cl   0.988137799323439   0.265934032543043   0.197281416884749   1.0
Cl13   Cl   0.174232371023606   0.054829230958298   0.648044521893937   1.0
N14   N   0.400194005661028   0.510055554159742   0.376316964092780   1.0
