data_1
_audit_creation_method   'Generated by vasp2cif'
_cell_length_a    8.52848575052
_cell_length_b    4.18993830018
_cell_length_c    5.44006826394
_cell_angle_alpha    89.3138349561
_cell_angle_beta    89.9257330599
_cell_angle_gamma    90.5120679202
_symmetry_space_group_name_H-M    'P 1'
loop_
_atom_site_label
_atom_site_type_symbol
_atom_site_fract_x
_atom_site_fract_y
_atom_site_fract_z
_atom_site_occupancy
C1   C   0.375883007888781   0.768616973469967   0.412897937022279   1.0
C2   C   0.510967808098286   0.534456814891932   0.417950831084511   1.0
H3   H   0.511279134484688   0.385241251051703   0.254580252257412   1.0
H4   H   0.620574093246475   0.670993777585039   0.420397109615578   1.0
H5   H   0.206890688680183   0.455068375783299   0.254192115335194   1.0
H6   H   0.126108781162877   0.756569675177992   0.406163601931894   1.0
H7   H   0.374537398317365   0.915022076773546   0.576744922620826   1.0
H8   H   0.507160256302676   0.383072584954483   0.582787802469959   1.0
H9   H   0.378859709408019   0.918290670118544   0.248084098063103   1.0
H10   H   0.203283919926633   0.450818626180762   0.563203280581412   1.0
Cl11   Cl   0.901824275495386   0.149840721575835   0.409554352097928   1.0
Cl12   Cl   0.169990623491295   0.123325140267198   0.910806285472141   1.0
Cl13   Cl   0.637847179384508   0.963543950945777   0.915140108330519   1.0
N14   N   0.217594870518354   0.596102762505950   0.408807513090352   1.0
