data_1
_audit_creation_method   'Generated by vasp2cif'
_cell_length_a    10.5724252751
_cell_length_b    4.54182251175
_cell_length_c    4.25746309712
_cell_angle_alpha    90.1787383792
_cell_angle_beta    89.6478490694
_cell_angle_gamma    84.9578841756
_symmetry_space_group_name_H-M    'P 1'
loop_
_atom_site_label
_atom_site_type_symbol
_atom_site_fract_x
_atom_site_fract_y
_atom_site_fract_z
_atom_site_occupancy
C1   C   0.597256260367423   0.718653143567046   0.550299063942464   1.0
C2   C   0.508265528267816   0.475670848157872   0.516183139022400   1.0
H3   H   0.516788744072599   0.323002735201274   0.714015778886036   1.0
H4   H   0.410466861244888   0.574572793463463   0.511006264508087   1.0
H5   H   0.752651817580697   0.445919907846994   0.740891932415744   1.0
H6   H   0.794120055520994   0.760575489217493   0.583161814619698   1.0
H7   H   0.589211624594868   0.873039086085995   0.354842061369146   1.0
H8   H   0.526412750948777   0.352210758122654   0.297356873704261   1.0
H9   H   0.580442021452709   0.842199971359661   0.768571178811073   1.0
H10   H   0.761000220178759   0.474834606020487   0.354750101177693   1.0
N14   N   0.735331876250354   0.593541526898678   0.556826477970809   1.0
