data_1
_audit_creation_method   'Generated by vasp2cif'
_cell_length_a    9.86351269788
_cell_length_b    4.68345607177
_cell_length_c    5.2469108941
_cell_angle_alpha    74.4448776847
_cell_angle_beta    105.480061557
_cell_angle_gamma    120.129955507
_symmetry_space_group_name_H-M    'P 1'
loop_
_atom_site_label
_atom_site_type_symbol
_atom_site_fract_x
_atom_site_fract_y
_atom_site_fract_z
_atom_site_occupancy
C1   C   0.617228468561587   0.690901302254491   0.497434089411743   1.0
C2   C   0.502402233761153   0.502178444486900   0.699344806601667   1.0
H3   H   0.386792228399677   0.320873997340545   0.611264717728674   1.0
H4   H   0.550266699722025   0.371388408258166   0.873244863271596   1.0
H5   H   0.713722279148029   0.358445853544563   0.594661498575329   1.0
H6   H   0.742854137278327   0.589823536131030   0.292653714181251   1.0
H7   H   0.565282021312021   0.795406204734319   0.311219260545181   1.0
H8   H   0.484627765002363   0.680605359352166   0.767841004408859   1.0
H9   H   0.729472228555979   0.887234785104431   0.578234583838951   1.0
H10   H   0.559742423476189   0.270091222826213   0.335681397157619   1.0
N14   N   0.660932506178898   0.459569097309514   0.422251477360476   1.0
