data_1
_audit_creation_method   'Generated by vasp2cif'
_cell_length_a    5.9029663672
_cell_length_b    5.81305366433
_cell_length_c    7.0870693367
_cell_angle_alpha    106.403507792
_cell_angle_beta    83.2180016336
_cell_angle_gamma    87.8262811696
_symmetry_space_group_name_H-M    'P 1'
loop_
_atom_site_label
_atom_site_type_symbol
_atom_site_fract_x
_atom_site_fract_y
_atom_site_fract_z
_atom_site_occupancy
C1   C   0.413907932009728   0.694776540872837   0.616841560198914   1.0
C2   C   0.306212962535106   0.499430819662550   0.695159299838487   1.0
C3   C   0.399512426604446   0.489544850176152   0.885348553932246   1.0
H4   H   0.338471785656658   0.649323941940274   0.007692176754318   1.0
H5   H   0.345529090305426   0.331595214568054   0.927399676198085   1.0
H6   H   0.346247197790362   0.325812657267207   0.582016248018910   1.0
H7   H   0.118967178030701   0.530933711095471   0.721154650033448   1.0
H8   H   0.365656102897958   0.529208675229739   0.320852868228272   1.0
H9   H   0.397984918550677   0.823386342484731   0.363692761966121   1.0
H10   H   0.586653048979585   0.477815028638503   0.864470195310403   1.0
H11   H   0.371753578141231   0.874886648780702   0.718982062268765   1.0
H12   H   0.599508413293854   0.663792708563932   0.583618087219421   1.0
H13   H   0.151313235969191   0.730693041569786   0.445998163782761   1.0
Cl14   Cl   0.445604605874308   0.102115154127908   0.192387152660324   1.0
Cl15   Cl   0.866814699550133   0.557475907524100   0.207481083385616   1.0
Cl16   Cl   0.890684555766363   0.051762164825277   0.717617716211883   1.0
N17   N   0.326700570497280   0.695627951595469   0.423951950605939   1.0
