data_1
_audit_creation_method   'Generated by vasp2cif'
_cell_length_a    6.1999828356
_cell_length_b    5.87538006279
_cell_length_c    6.14210204772
_cell_angle_alpha    98.2559430354
_cell_angle_beta    81.0000306739
_cell_angle_gamma    97.0194191603
_symmetry_space_group_name_H-M    'P 1'
loop_
_atom_site_label
_atom_site_type_symbol
_atom_site_fract_x
_atom_site_fract_y
_atom_site_fract_z
_atom_site_occupancy
C1   C   0.500866452840689   0.582922024045318   0.619020258061873   1.0
C2   C   0.500731860337412   0.423830637645609   0.794891947396499   1.0
C3   C   0.625022430546666   0.212091014485883   0.707090161345581   1.0
H4   H   0.797557796091207   0.265061336006399   0.649890687915645   1.0
H5   H   0.618905559721080   0.103601995123394   0.837699313426153   1.0
H6   H   0.330881647130549   0.372492994597318   0.865748042887938   1.0
H7   H   0.578968156641261   0.526447254624875   0.930284344353814   1.0
H8   H   0.380292157899073   0.317003350295869   0.374289337280768   1.0
H9   H   0.347133977177543   0.587643605935430   0.335028501829675   1.0
H10   H   0.554124472154638   0.106373600292413   0.568835149004442   1.0
H11   H   0.443441014086448   0.748597890263531   0.690966391089696   1.0
H12   H   0.662664022202144   0.609681079366681   0.522189766082108   1.0
H13   H   0.185332787356026   0.464521345675173   0.532949568917095   1.0
N17   N   0.344631544242090   0.478520290650741   0.453800679393826   1.0
