data_1
_audit_creation_method   'Generated by vasp2cif'
_cell_length_a    6.2226184797
_cell_length_b    6.07217436935
_cell_length_c    6.04738003502
_cell_angle_alpha    76.8245379752
_cell_angle_beta    89.4125723402
_cell_angle_gamma    82.875143538
_symmetry_space_group_name_H-M    'P 1'
loop_
_atom_site_label
_atom_site_type_symbol
_atom_site_fract_x
_atom_site_fract_y
_atom_site_fract_z
_atom_site_occupancy
C1   C   0.585874586228428   0.604332708042399   0.365763734133196   1.0
C2   C   0.620466472860727   0.407907056667064   0.245546558807348   1.0
C3   C   0.412922718970407   0.303020402479063   0.218115775074075   1.0
H4   H   0.283744639648376   0.430290706545684   0.128194073634575   1.0
H5   H   0.444776320621109   0.169681158528498   0.123654071322605   1.0
H6   H   0.745480472843433   0.276293013115520   0.336367436861615   1.0
H7   H   0.688577770720102   0.475174701510639   0.079581202395069   1.0
H8   H   0.579212451412090   0.373704574435841   0.687215115580287   1.0
H9   H   0.333313280408028   0.501822565674090   0.598006273190123   1.0
H10   H   0.348971532752962   0.223719015229101   0.382330116458384   1.0
H11   H   0.736917600137325   0.668720324322500   0.390894110825229   1.0
H12   H   0.469310144665968   0.744571414771457   0.276735383018114   1.0
H13   H   0.511285769575721   0.647594267807158   0.694368272373204   1.0
N17   N   0.494620775006496   0.526134824156010   0.602524422955341   1.0
