data_1
_audit_creation_method   'Generated by vasp2cif'
_cell_length_a    8.11606605917
_cell_length_b    4.36122779003
_cell_length_c    7.11527107946
_cell_angle_alpha    75.8844799547
_cell_angle_beta    81.1607357093
_cell_angle_gamma    74.3007948765
_symmetry_space_group_name_H-M    'P 1'
loop_
_atom_site_label
_atom_site_type_symbol
_atom_site_fract_x
_atom_site_fract_y
_atom_site_fract_z
_atom_site_occupancy
C1   C   0.908967589595065   0.356760268769001   0.378950577715990   1.0
C2   C   0.744814228511501   0.237529928107364   0.443985570091819   1.0
C3   C   0.662148381652976   0.237435932367205   0.263067616853519   1.0
H4   H   0.546936407740432   0.144061246563936   0.307954496262909   1.0
H5   H   0.751758486472980   0.086152645627543   0.170420005563251   1.0
H6   H   0.774327470278045   0.990394460406378   0.534771625140806   1.0
H7   H   0.654202187446735   0.392058432937780   0.533960036017220   1.0
H8   H   0.053120100332755   0.031419026422299   0.605088153981924   1.0
H9   H   0.973739403482654   0.398474770216730   0.652401985741449   1.0
H10   H   0.985198068930060   0.238777081983642   0.265107485841931   1.0
H11   H   0.626135910691694   0.485384273396974   0.175374721984561   1.0
H12   H   0.883025129233502   0.619293201284520   0.323854247547700   1.0
H13   H   0.139648711416214   0.340455763364780   0.485755006740305   1.0
Cl14   Cl   0.409383354681360   0.916129876205403   0.699965627796672   1.0
Cl15   Cl   0.994535718625293   0.643657292187328   0.886494343982079   1.0
Cl16   Cl   0.251452877506821   0.756312451904229   0.261871230733981   1.0
N17   N   0.025231117216165   0.276277985091070   0.540699443429816   1.0
