data_1
_audit_creation_method   'Generated by vasp2cif'
_cell_length_a    7.10139452584
_cell_length_b    4.56685766597
_cell_length_c    8.46926373319
_cell_angle_alpha    95.0852028948
_cell_angle_beta    121.027629273
_cell_angle_gamma    74.9613203521
_symmetry_space_group_name_H-M    'P 1'
loop_
_atom_site_label
_atom_site_type_symbol
_atom_site_fract_x
_atom_site_fract_y
_atom_site_fract_z
_atom_site_occupancy
C1   C   0.144543749296787   0.365867029313591   0.571854661231797   1.0
C2   C   0.310074720565339   0.545812027785082   0.592811829269714   1.0
C3   C   0.435357365898277   0.671016622812118   0.784142027175349   1.0
H4   H   0.319388324500494   0.811524758852741   0.825601118008599   1.0
H5   H   0.538815521169340   0.812056138927566   0.784535672887152   1.0
H6   H   0.435094194372667   0.392205996018845   0.565323776736385   1.0
H7   H   0.220482807429967   0.727984591757149   0.484757900303904   1.0
H8   H   0.841413462768358   0.661059504301498   0.362939948334983   1.0
H9   H   0.885034231978302   0.730282225566306   0.574454112908064   1.0
H10   H   0.135177534529056   0.185928885809531   0.477073981509747   1.0
H11   H   0.547574917056295   0.485130130677852   0.888873199122926   1.0
H12   H   0.190698168196398   0.268900538829875   0.703762380975682   1.0
H13   H   0.794311085338371   0.426262930809948   0.471636816855060   1.0
N17   N   0.900670446838731   0.558125110562720   0.489809556175338   1.0
