data_1
_audit_creation_method   'Generated by vasp2cif'
_cell_length_a    8.01569098108
_cell_length_b    4.38590942961
_cell_length_c    7.10360688141
_cell_angle_alpha    103.617314792
_cell_angle_beta    81.2825845438
_cell_angle_gamma    105.184893999
_symmetry_space_group_name_H-M    'P 1'
loop_
_atom_site_label
_atom_site_type_symbol
_atom_site_fract_x
_atom_site_fract_y
_atom_site_fract_z
_atom_site_occupancy
C1   C   0.893836319388306   0.555583627914054   0.335288578047802   1.0
C2   C   0.728279539100129   0.677824602222799   0.397790155947696   1.0
C3   C   0.648184426812080   0.686021554878550   0.215675115030123   1.0
H4   H   0.612507416454932   0.442315578167047   0.126744812566557   1.0
H5   H   0.740499213948617   0.836882933251474   0.124733051721854   1.0
H6   H   0.634821573537899   0.523818158965753   0.486025296520836   1.0
H7   H   0.757848950695738   0.920719976225584   0.489640471861705   1.0
H8   H   0.953504819523324   0.502674318881731   0.609468274297690   1.0
H9   H   0.035285627532559   0.869032707241814   0.565630433694579   1.0
H10   H   0.867267045348434   0.296091093770436   0.279259426440262   1.0
H11   H   0.532033586709865   0.781580233701568   0.258916024830427   1.0
H12   H   0.973302414893290   0.674644235767559   0.223127075106774   1.0
H13   H   0.124057513050133   0.563114584385758   0.446479877563185   1.0
N17   N   0.007994790301133   0.627714576713693   0.499561497619197   1.0
