data_1
_audit_creation_method   'Generated by vasp2cif'
_cell_length_a    6.79593149391
_cell_length_b    5.25097190204
_cell_length_c    8.09048662334
_cell_angle_alpha    92.6211722986
_cell_angle_beta    120.208101266
_cell_angle_gamma    66.7905021791
_symmetry_space_group_name_H-M    'P 1'
loop_
_atom_site_label
_atom_site_type_symbol
_atom_site_fract_x
_atom_site_fract_y
_atom_site_fract_z
_atom_site_occupancy
C1   C   0.173046015498929   0.403883815979051   0.659232867450726   1.0
C2   C   0.276478765522620   0.585049296539250   0.616165543650976   1.0
C3   C   0.473778439552761   0.636473126579229   0.802360105490120   1.0
H4   H   0.622662361780830   0.439767581171636   0.904312565733340   1.0
H5   H   0.387052264955920   0.772516482342581   0.875851573525942   1.0
H6   H   0.360336631589556   0.480734969525502   0.531886656230980   1.0
H7   H   0.120287670816046   0.787664650998208   0.526048106436434   1.0
H8   H   0.997113998596660   0.295617922440221   0.380946732249550   1.0
H9   H   0.809749221621211   0.605322455208219   0.398803298419604   1.0
H10   H   0.311033893990355   0.184917468885555   0.720848009781581   1.0
H11   H   0.559937093923709   0.741574615722590   0.763694429076885   1.0
H12   H   0.106222029376498   0.484217356750061   0.756651188884865   1.0
H13   H   0.864277420821924   0.299454960629484   0.508166309018535   1.0
Cl14   Cl   0.725845814708319   0.002848965001513   0.151168702550801   1.0
Cl15   Cl   0.334445321171162   0.000338827572180   0.316389628227238   1.0
Cl16   Cl   0.868963203778404   0.061552814804038   0.752603201693971   1.0
N17   N   0.944122356139430   0.402373868493371   0.472866612817721   1.0
