data_1
_audit_creation_method   'Generated by vasp2cif'
_cell_length_a    5.95472969165
_cell_length_b    5.82518862819
_cell_length_c    9.56618833677
_cell_angle_alpha    63.8083711236
_cell_angle_beta    128.641316777
_cell_angle_gamma    95.7827221756
_symmetry_space_group_name_H-M    'P 1'
loop_
_atom_site_label
_atom_site_type_symbol
_atom_site_fract_x
_atom_site_fract_y
_atom_site_fract_z
_atom_site_occupancy
C1   C   0.889445197918982   0.571960555513972   0.395295551138266   1.0
C2   C   0.705662590326830   0.782658335211420   0.364069397706467   1.0
C3   C   0.547959959111574   0.023591690392598   0.151986049878858   1.0
H4   H   0.707584664336800   0.095473622769388   0.131895697872650   1.0
H5   H   0.432577360705360   0.181441538153056   0.133645372091504   1.0
H6   H   0.545204042510586   0.702084020955853   0.381621774573573   1.0
H7   H   0.852171333356579   0.841318000547753   0.481853407557215   1.0
H8   H   0.927178304203427   0.272477383251844   0.643033549318817   1.0
H9   H   0.225227921235186   0.392167400549546   0.715854213083752   1.0
H10   H   0.750888564131706   0.496403942996962   0.288428239850444   1.0
H11   H   0.385304178648172   0.973802981621904   0.031460536216382   1.0
H12   H   0.052456181109188   0.646468627075842   0.379491790508274   1.0
H13   H   0.170970348295277   0.181435280124042   0.629596356089078   1.0
N17   N   0.064478096402178   0.336324908129643   0.609691199061083   1.0
