data_1
_audit_creation_method   'Generated by vasp2cif'
_cell_length_a    6.54129083703
_cell_length_b    5.90958318295
_cell_length_c    5.88414317531
_cell_angle_alpha    82.1016002432
_cell_angle_beta    84.6608830073
_cell_angle_gamma    90.0685262261
_symmetry_space_group_name_H-M    'P 1'
loop_
_atom_site_label
_atom_site_type_symbol
_atom_site_fract_x
_atom_site_fract_y
_atom_site_fract_z
_atom_site_occupancy
C1   C   0.405626209991141   0.693391876679541   0.197239474398636   1.0
C2   C   0.559654663531937   0.888305160179428   0.193423136906148   1.0
C3   C   0.486049437640581   0.062153568256157   0.350597874973275   1.0
H4   H   0.456758005053587   0.979562473712342   0.529486610985785   1.0
H5   H   0.597924668113471   0.200060926443996   0.344003815192075   1.0
H6   H   0.342753966436177   0.134853106017594   0.295347465729599   1.0
H7   H   0.865507733650617   0.920994913231446   0.279369350888352   1.0
H8   H   0.600572794408819   0.971536555869271   0.017270905952344   1.0
H9   H   0.466042203298429   0.563140506535731   0.095210472250919   1.0
H10   H   0.267487916491326   0.762622402359611   0.123836083260358   1.0
H11   H   0.363033531818111   0.613429428758430   0.374491647663838   1.0
H12   H   0.827425613531780   0.680098270531715   0.168705220921666   1.0
H13   H   0.735358690883210   0.699215370046183   0.439410880743424   1.0
Cl14   Cl   0.659562268059339   0.402406150477397   0.736540424182344   1.0
Cl15   Cl   0.015319644073216   0.885908764508748   0.753575853953983   1.0
Cl16   Cl   0.000795877360247   0.303863522307523   0.190090830577063   1.0
N17   N   0.761721229152982   0.789929898586784   0.275404137043381   1.0
