data_1
_audit_creation_method   'Generated by vasp2cif'
_cell_length_a    5.80728051457
_cell_length_b    6.32823696211
_cell_length_c    6.15694312599
_cell_angle_alpha    88.3220674648
_cell_angle_beta    95.9904003525
_cell_angle_gamma    79.272883481
_symmetry_space_group_name_H-M    'P 1'
loop_
_atom_site_label
_atom_site_type_symbol
_atom_site_fract_x
_atom_site_fract_y
_atom_site_fract_z
_atom_site_occupancy
C1   C   0.241094665789767   0.798605055086483   0.543770374756448   1.0
C2   C   0.341198427774294   0.880932216243714   0.345450690879758   1.0
C3   C   0.556560024281779   0.982317445479111   0.403438649497076   1.0
H4   H   0.501269317279203   0.129458079137997   0.487880656413552   1.0
H5   H   0.690190785194190   0.873973214781003   0.513292933891492   1.0
H6   H   0.633391544247530   0.024709098058466   0.257797057871926   1.0
H7   H   0.497360264687714   0.732103276409291   0.074785570292256   1.0
H8   H   0.204175725986161   0.994086636149973   0.243707943567287   1.0
H9   H   0.195438923291952   0.931694357960204   0.649746806577987   1.0
H10   H   0.371990999317539   0.673349356329069   0.638235335400296   1.0
H11   H   0.083584444293230   0.732449031960577   0.496785699805095   1.0
H12   H   0.259295549043763   0.637133520343006   0.134152391034135   1.0
H13   H   0.521369056076196   0.564419446796322   0.289070888111773   1.0
Cl14   Cl   0.897400296635006   0.368751781645486   0.435295981020793   1.0
Cl15   Cl   0.864710773128131   0.716712987959369   0.934829353658806   1.0
Cl16   Cl   0.393307728155733   0.282428467821035   0.897331431512441   1.0
N17   N   0.407238719112584   0.690594635952159   0.200870962400344   1.0
