data_1
_audit_creation_method   'Generated by vasp2cif'
_cell_length_a    6.20591880976
_cell_length_b    6.1797666318
_cell_length_c    5.94878685131
_cell_angle_alpha    77.94324739
_cell_angle_beta    83.1449265317
_cell_angle_gamma    90.73378084
_symmetry_space_group_name_H-M    'P 1'
loop_
_atom_site_label
_atom_site_type_symbol
_atom_site_fract_x
_atom_site_fract_y
_atom_site_fract_z
_atom_site_occupancy
C1   C   0.426584973814961   0.645223653897872   0.351506806336204   1.0
C2   C   0.609451736750515   0.757704310208382   0.440278305634124   1.0
C3   C   0.537216300223434   0.856253436668091   0.650056527682381   1.0
H4   H   0.431032761007181   0.992180325873100   0.597493565262660   1.0
H5   H   0.446470181879327   0.733338624751809   0.789089813207305   1.0
H6   H   0.675471454087436   0.921724621637921   0.715397342184765   1.0
H7   H   0.898191290567723   0.650246828865939   0.584296376561383   1.0
H8   H   0.694069524121772   0.884209355004991   0.300457284259572   1.0
H9   H   0.302509300583168   0.765093910613402   0.307223696809423   1.0
H10   H   0.350199429226727   0.506396765574173   0.484350428482237   1.0
H11   H   0.484808373609525   0.582646154429796   0.197536710019087   1.0
H12   H   0.853919010548410   0.534940758398818   0.361084900650432   1.0
H13   H   0.708802650750847   0.449682262228642   0.624480956947309   1.0
N17   N   0.780299653190475   0.585786453469289   0.505370205024882   1.0
