data_1
_audit_creation_method   'Generated by vasp2cif'
_cell_length_a    5.82073783858
_cell_length_b    5.76803583382
_cell_length_c    6.63065151718
_cell_angle_alpha    94.1478888063
_cell_angle_beta    91.5337944027
_cell_angle_gamma    83.1073182597
_symmetry_space_group_name_H-M    'P 1'
loop_
_atom_site_label
_atom_site_type_symbol
_atom_site_fract_x
_atom_site_fract_y
_atom_site_fract_z
_atom_site_occupancy
C1   C   0.620066177105926   0.722994683041783   0.660476880104071   1.0
C2   C   0.457773900425522   0.533386736756626   0.637788915892209   1.0
C3   C   0.286902497185693   0.544783360463143   0.809922126332118   1.0
H4   H   0.383475361170547   0.523636596199260   0.952008725135123   1.0
H5   H   0.173222801780035   0.407167069259295   0.788915512131140   1.0
H6   H   0.181101806699885   0.715328737479247   0.820533561056351   1.0
H7   H   0.428659241499787   0.552345562769275   0.318580209675126   1.0
H8   H   0.556511634578904   0.359648977571297   0.617307433165323   1.0
H9   H   0.732356949456999   0.692722428068620   0.792598979813036   1.0
H10   H   0.727779704257948   0.718599331981530   0.528256726363473   1.0
H11   H   0.521920126946007   0.897191671419293   0.682083084060380   1.0
H12   H   0.209002405603279   0.436853403215068   0.414286625524184   1.0
H13   H   0.220447426447819   0.726772782780444   0.445564272357480   1.0
Cl14   Cl   0.993317851671350   0.089881758008730   0.508676972772939   1.0
Cl15   Cl   0.838444353910241   0.532505229549358   0.156197760190480   1.0
Cl16   Cl   0.449148591150376   0.071251212006544   0.158497567654521   1.0
N17   N   0.318680684140716   0.564118567253281   0.439196968723017   1.0
