data_1
_audit_creation_method   'Generated by vasp2cif'
_cell_length_a    8.32937168631
_cell_length_b    4.78125225952
_cell_length_c    6.55692877115
_cell_angle_alpha    113.697363191
_cell_angle_beta    77.3323208218
_cell_angle_gamma    106.47823633
_symmetry_space_group_name_H-M    'P 1'
loop_
_atom_site_label
_atom_site_type_symbol
_atom_site_fract_x
_atom_site_fract_y
_atom_site_fract_z
_atom_site_occupancy
C1   C   0.352194948751546   0.378389859257034   0.704921360651660   1.0
C2   C   0.399037346162260   0.060593698623890   0.569507381430583   1.0
C3   C   0.269389293099877   0.835249108843115   0.410833329586950   1.0
H4   H   0.145658934696151   0.795213146582832   0.506752617113193   1.0
H5   H   0.302925023357389   0.608940221266977   0.314720025902929   1.0
H6   H   0.256639743283664   0.935775508196343   0.292697109533869   1.0
H7   H   0.661589350516437   0.270821419830597   0.528988282389705   1.0
H8   H   0.416456031483335   0.961290828863298   0.684425357842962   1.0
H9   H   0.296899858422144   0.448540913360937   0.601250475321216   1.0
H10   H   0.259251464055403   0.355044189640481   0.846916806859618   1.0
H11   H   0.460152202426656   0.561224719008777   0.774000052948431   1.0
H12   H   0.613033408869740   0.897918625432389   0.355637464655828   1.0
H13   H   0.568124631736907   0.181935677396609   0.306259162363155   1.0
Cl14   Cl   0.590272614901743   0.393561991732263   0.066584405145875   1.0
Cl15   Cl   0.971208205037030   0.159316447097197   0.176299852535472   1.0
Cl16   Cl   0.804719944886685   0.814397316812013   0.626533621088733   1.0
N17   N   0.571752347811831   0.104719721306267   0.432155688227439   1.0
