data_1
_audit_creation_method   'Generated by vasp2cif'
_cell_length_a    6.01207107468
_cell_length_b    5.02016135024
_cell_length_c    8.64247400363
_cell_angle_alpha    108.931606993
_cell_angle_beta    91.218468435
_cell_angle_gamma    115.083996235
_symmetry_space_group_name_H-M    'P 1'
loop_
_atom_site_label
_atom_site_type_symbol
_atom_site_fract_x
_atom_site_fract_y
_atom_site_fract_z
_atom_site_occupancy
C1   C   0.318124614414849   0.657333165929629   0.330687815592761   1.0
C2   C   0.435690012334305   0.455559518387751   0.358589024439148   1.0
C3   C   0.646471742623866   0.464632570799488   0.261026445312425   1.0
H4   H   0.576493577857832   0.392031585316658   0.128804754264898   1.0
H5   H   0.721240075231670   0.308173306003589   0.275217134442855   1.0
H6   H   0.798815274272030   0.706281391557859   0.302326110061301   1.0
H7   H   0.391453437743685   0.525417593252079   0.608632858155303   1.0
H8   H   0.290141939947787   0.212588802908463   0.327580854507346   1.0
H9   H   0.464670865424992   0.886024446267953   0.337589385803888   1.0
H10   H   0.202348627915178   0.533398251435514   0.206348962740051   1.0
H11   H   0.200127781575901   0.694488935947746   0.421325485385402   1.0
H12   H   0.637254813122254   0.456518079581464   0.566748803047780   1.0
H13   H   0.655938424411232   0.810650236035038   0.592489900285088   1.0
N17   N   0.537216319115345   0.569540680993562   0.544802901214830   1.0
