data_1
_audit_creation_method   'Generated by vasp2cif'
_cell_length_a    7.75935474323
_cell_length_b    4.30565040654
_cell_length_c    7.16940668769
_cell_angle_alpha    76.5405987972
_cell_angle_beta    79.1316526437
_cell_angle_gamma    90.9139141872
_symmetry_space_group_name_H-M    'P 1'
loop_
_atom_site_label
_atom_site_type_symbol
_atom_site_fract_x
_atom_site_fract_y
_atom_site_fract_z
_atom_site_occupancy
C1   C   0.577070231526463   0.000617930660837   0.280905669663873   1.0
C2   C   0.541821550724727   0.983369011700653   0.500419344333885   1.0
C3   C   0.685414771355575   0.155541784224908   0.565005518158848   1.0
H4   H   0.806588836718312   0.031653310965545   0.542442922798323   1.0
H5   H   0.651767810362074   0.152526725061264   0.720522575012637   1.0
H6   H   0.712271205108124   0.403807041096449   0.480175701199407   1.0
H7   H   0.343277985458386   0.134312959093421   0.705614745651538   1.0
H8   H   0.525726739237221   0.735629544252085   0.584931821460380   1.0
H9   H   0.470693702977371   0.882752385776058   0.237204002017464   1.0
H10   H   0.594039118751276   0.249110183181664   0.194913872023015   1.0
H11   H   0.698137725052199   0.883769197674667   0.241578591231160   1.0
H12   H   0.345345598688482   0.336126970712414   0.476638520656437   1.0
H13   H   0.261016475297040   0.964458851647876   0.550368653726935   1.0
N17   N   0.362358710041043   0.114284634451380   0.562251261107249   1.0
