data_1
_audit_creation_method   'Generated by vasp2cif'
_cell_length_a    6.16753345207
_cell_length_b    4.29036197265
_cell_length_c    8.63079102718
_cell_angle_alpha    82.6695749701
_cell_angle_beta    83.5456310204
_cell_angle_gamma    96.8618654369
_symmetry_space_group_name_H-M    'P 1'
loop_
_atom_site_label
_atom_site_type_symbol
_atom_site_fract_x
_atom_site_fract_y
_atom_site_fract_z
_atom_site_occupancy
C1   C   0.476271621268943   0.582289864289287   0.656951485073456   1.0
C2   C   0.431098583638281   0.424304973714826   0.513303681671914   1.0
C3   C   0.301907584336931   0.607945963432968   0.400694359869505   1.0
H4   H   0.156732458107392   0.668165461386430   0.469290373508493   1.0
H5   H   0.248465316190355   0.468398526584657   0.311489786396443   1.0
H6   H   0.398023492037751   0.828485436985879   0.338524155998527   1.0
H7   H   0.637269522239990   0.253782857395002   0.333045712477308   1.0
H8   H   0.344538121213027   0.185195669329900   0.550918085787998   1.0
H9   H   0.536672172302247   0.421753482274532   0.745355062965089   1.0
H10   H   0.598907255675456   0.793585549648625   0.625890545005518   1.0
H11   H   0.324685497262351   0.654550630468435   0.710330887972013   1.0
H12   H   0.743811619682276   0.597822492046554   0.374935965334330   1.0
H13   H   0.749480347350634   0.270179859826719   0.501747950813446   1.0
N17   N   0.654469688134697   0.380726966375953   0.425809383770812   1.0
