data_1
_audit_creation_method   'Generated by vasp2cif'
_cell_length_a    5.93146119679
_cell_length_b    6.04958137399
_cell_length_c    5.83799444778
_cell_angle_alpha    85.0144181058
_cell_angle_beta    97.5366061297
_cell_angle_gamma    102.526557325
_symmetry_space_group_name_H-M    'P 1'
loop_
_atom_site_label
_atom_site_type_symbol
_atom_site_fract_x
_atom_site_fract_y
_atom_site_fract_z
_atom_site_occupancy
H4   H   0.492788292053075   0.600184924048802   0.278772988341512   1.0
H5   H   0.734567072974132   0.318960725812240   0.367046302920994   1.0
H6   H   0.655931509477766   0.638066050203008   0.526490771233939   1.0
H7   H   0.155437887459310   0.412194147974471   0.472316923912420   1.0
H8   H   0.335485408038561   0.457380090687345   0.742694894075235   1.0
H9   H   0.273090150408331   0.693993216706131   0.561568585870157   1.0
H10   H   0.432963602060133   0.191273605616098   0.338388979195279   1.0
H11   H   0.589847060431251   0.226598765948864   0.620648764852959   1.0
C12   C   0.302389879145934   0.522568090312241   0.564516923419679   1.0
C13   C   0.573303718601150   0.298077777120874   0.443117335371595   1.0
N15   N   0.514768107389019   0.528321879643642   0.445828279281127   1.0
