data_1
_audit_creation_method   'Generated by vasp2cif'
_cell_length_a    5.98798558765
_cell_length_b    5.94464874914
_cell_length_c    5.87017511875
_cell_angle_alpha    84.9510240811
_cell_angle_beta    103.744449005
_cell_angle_gamma    98.2143505265
_symmetry_space_group_name_H-M    'P 1'
loop_
_atom_site_label
_atom_site_type_symbol
_atom_site_fract_x
_atom_site_fract_y
_atom_site_fract_z
_atom_site_occupancy
Cl1   Cl   0.493114088890259   0.937571566289684   0.949128617412917   1.0
Cl2   Cl   0.889812900649041   0.938653566133631   0.549176425789099   1.0
Cl3   Cl   0.972886911412481   0.424080030595249   0.993093077595923   1.0
H4   H   0.322038845044673   0.591751910443939   0.252389999681654   1.0
H5   H   0.664101353530370   0.430831140605108   0.249316454584772   1.0
H6   H   0.542470893826284   0.706557289473807   0.457659077887776   1.0
H7   H   0.168274093972492   0.339858720382587   0.536537282576397   1.0
H8   H   0.404228605480213   0.454468916486135   0.761246444308952   1.0
H9   H   0.192957317968847   0.631291356827923   0.606039171132714   1.0
H10   H   0.455580439913923   0.220588379350211   0.343587577860191   1.0
H11   H   0.693916336339136   0.351176484826880   0.555289573191274   1.0
C12   C   0.287055448206331   0.491207364806328   0.593667951574737   1.0
C13   C   0.572465985395020   0.376397371089006   0.388112729281048   1.0
N15   N   0.430613511417597   0.559051171508926   0.413292391155657   1.0
