data_1
_audit_creation_method   'Generated by vasp2cif'
_cell_length_a    5.97226209462
_cell_length_b    5.94289964652
_cell_length_c    5.9154372597
_cell_angle_alpha    79.5102348152
_cell_angle_beta    101.504284616
_cell_angle_gamma    97.5849902504
_symmetry_space_group_name_H-M    'P 1'
loop_
_atom_site_label
_atom_site_type_symbol
_atom_site_fract_x
_atom_site_fract_y
_atom_site_fract_z
_atom_site_occupancy
Cl1   Cl   0.468845897424046   0.924478773695981   0.008185473723579   1.0
Cl2   Cl   0.987987481086996   0.950967527481751   0.453407439191835   1.0
Cl3   Cl   0.931690668196580   0.449590868974426   0.952863193023937   1.0
H4   H   0.522881091503336   0.682581799716267   0.370068583362062   1.0
H5   H   0.690534464205648   0.359011589431134   0.290042520180379   1.0
H6   H   0.676606733744350   0.543475650499985   0.609959815138403   1.0
H7   H   0.167896735417045   0.477897624623253   0.484357266016652   1.0
H8   H   0.342246213316748   0.341354662401272   0.741751038265051   1.0
H9   H   0.327067822959108   0.645868245011791   0.696614945965543   1.0
H10   H   0.384503148698435   0.342816056782894   0.213744298508239   1.0
H11   H   0.516329843422554   0.174534747510982   0.476765680576626   1.0
C12   C   0.324392551020608   0.497084949118573   0.613024594686010   1.0
C13   C   0.530846497693638   0.336164085477016   0.356916971180034   1.0
N15   N   0.526565103132306   0.530634516310066   0.488027313593783   1.0
