data_1
_audit_creation_method   'Generated by vasp2cif'
_cell_length_a    5.92524476052
_cell_length_b    4.25492555363
_cell_length_c    8.14373961545
_cell_angle_alpha    88.6276523966
_cell_angle_beta    81.7270105252
_cell_angle_gamma    81.0756483085
_symmetry_space_group_name_H-M    'P 1'
loop_
_atom_site_label
_atom_site_type_symbol
_atom_site_fract_x
_atom_site_fract_y
_atom_site_fract_z
_atom_site_occupancy
Cl1   Cl   0.963674081871548   0.104056648802107   0.797190791695732   1.0
Cl2   Cl   0.499118392054878   0.748460996658012   0.063818113636765   1.0
Cl3   Cl   0.893441662839125   0.079420231196934   0.304374439208429   1.0
H4   H   0.278999856460051   0.278757967809055   0.549972282641289   1.0
H5   H   0.638808146441525   0.448582325393763   0.412968059040902   1.0
H6   H   0.502824791342671   0.809517166327303   0.390831484337191   1.0
H7   H   0.558550465934751   0.465786564114762   0.710162224403186   1.0
H8   H   0.703213013102703   0.786548175794635   0.629879740171708   1.0
H9   H   0.398283679790184   0.854485020844552   0.698761453019829   1.0
H10   H   0.280766019244273   0.398778715304342   0.336726568825922   1.0
H11   H   0.135094379688501   0.659781188787442   0.500426024713132   1.0
C12   C   0.543206799996429   0.687119398888867   0.639732443629831   1.0
C13   C   0.281939651726831   0.476370017928120   0.462838818033938   1.0
N15   N   0.500970925397793   0.613159260115060   0.467277405871536   1.0
