data_1
_audit_creation_method   'Generated by vasp2cif'
_cell_length_a    5.91999816781
_cell_length_b    4.26508495593
_cell_length_c    8.14209158437
_cell_angle_alpha    91.1246082338
_cell_angle_beta    81.8320296575
_cell_angle_gamma    99.4448298646
_symmetry_space_group_name_H-M    'P 1'
loop_
_atom_site_label
_atom_site_type_symbol
_atom_site_fract_x
_atom_site_fract_y
_atom_site_fract_z
_atom_site_occupancy
H4   H   0.735162546574983   0.305393407578904   0.438874139355065   1.0
H5   H   0.380781627197230   0.474098728867908   0.586318874376701   1.0
H6   H   0.523845020435509   0.832010730806573   0.608073113446977   1.0
H7   H   0.443989709649927   0.497075292900028   0.290629074251839   1.0
H8   H   0.315587768401741   0.826549009321198   0.374332604082845   1.0
H9   H   0.618797282695041   0.877922159718786   0.297654667278309   1.0
H10   H   0.740169920928409   0.410080747901489   0.653393018493283   1.0
H11   H   0.885436534286306   0.680284269507737   0.492630572652182   1.0
C12   C   0.471040744254090   0.717584764214060   0.360199400661941   1.0
C13   C   0.736897297549916   0.496809048536704   0.529143196450917   1.0
N15   N   0.519293538342481   0.638051830066459   0.530467839229104   1.0
