data_1
_audit_creation_method   'Generated by vasp2cif'
_cell_length_a    8.04872882981
_cell_length_b    4.27065312684
_cell_length_c    6.83445770758
_cell_angle_alpha    120.786539814
_cell_angle_beta    93.8799388214
_cell_angle_gamma    93.2072067822
_symmetry_space_group_name_H-M    'P 1'
loop_
_atom_site_label
_atom_site_type_symbol
_atom_site_fract_x
_atom_site_fract_y
_atom_site_fract_z
_atom_site_occupancy
H4   H   0.446288622962989   0.509763044838223   0.266745840085939   1.0
H5   H   0.549233884128064   0.065984982208370   0.640522630933631   1.0
H6   H   0.595499438824213   0.284521914775361   0.509061101276686   1.0
H7   H   0.256050858525043   0.964218093953804   0.508580513537744   1.0
H8   H   0.328540507299771   0.439944200997161   0.650247811629647   1.0
H9   H   0.296339356177334   0.168703411186016   0.342916158979257   1.0
H10   H   0.666933037378826   0.655995362205090   0.313701823018775   1.0
H11   H   0.527698178840637   0.747787962354550   0.138207897449490   1.0
C12   C   0.334879086324619   0.170844282063790   0.499328878973344   1.0
C13   C   0.541174714812456   0.718903565049757   0.287578875875944   1.0
N15   N   0.513426262603360   0.078448949863933   0.495683513757996   1.0
