data_1
_audit_creation_method   'Generated by vasp2cif'
_cell_length_a    5.88448833592
_cell_length_b    4.34728950712
_cell_length_c    7.85531041475
_cell_angle_alpha    81.9987462532
_cell_angle_beta    85.3666019727
_cell_angle_gamma    83.4051247038
_symmetry_space_group_name_H-M    'P 1'
loop_
_atom_site_label
_atom_site_type_symbol
_atom_site_fract_x
_atom_site_fract_y
_atom_site_fract_z
_atom_site_occupancy
H4   H   0.291009015057014   0.143384976586411   0.535211388201816   1.0
H5   H   0.669061186097608   0.346416094874243   0.485758212970971   1.0
H6   H   0.546628178610391   0.685527058536891   0.402011759208719   1.0
H7   H   0.478270854628484   0.378499913711771   0.763364671438175   1.0
H8   H   0.604014669662455   0.732269742914781   0.691616156988431   1.0
H9   H   0.302251163763955   0.717555929322245   0.677836793690076   1.0
H10   H   0.380601910952443   0.252948740740344   0.312281926359255   1.0
H11   H   0.176395658632629   0.503405256062464   0.425115304886745   1.0
C12   C   0.471817669479911   0.588705211053828   0.670042535017117   1.0
C13   C   0.327166470651271   0.333856242465998   0.435743692258228   1.0
N15   N   0.518025290537615   0.493863624220474   0.491515513323797   1.0
