data_1
_audit_creation_method   'Generated by vasp2cif'
_cell_length_a    5.99461637822
_cell_length_b    6.0062325509
_cell_length_c    5.89624854972
_cell_angle_alpha    83.5533458492
_cell_angle_beta    102.925280998
_cell_angle_gamma    90.9767519103
_symmetry_space_group_name_H-M    'P 1'
loop_
_atom_site_label
_atom_site_type_symbol
_atom_site_fract_x
_atom_site_fract_y
_atom_site_fract_z
_atom_site_occupancy
C1   C   0.589613691628962   0.469926214502550   0.423979842258376   1.0
C2   C   0.502812545495374   0.627246274653459   0.564891606179096   1.0
H3   H   0.281765465342872   0.660538988740569   0.782068819508602   1.0
H4   H   0.553480194437768   0.935714641793275   0.683563831565316   1.0
H5   H   0.599123838904092   0.554379984784404   0.252383146998305   1.0
H6   H   0.480731865027181   0.323624884289771   0.401381093832825   1.0
H7   H   0.762882547010960   0.413753030373975   0.514329066422043   1.0
H8   H   0.716418582424453   0.877249888996850   0.488713881668367   1.0
H9   H   0.278352441716990   0.404761668092760   0.669739161102150   1.0
N13   N   0.348343037896100   0.559187933299583   0.686107856225981   1.0
N14   N   0.585854874584911   0.832941397537219   0.567874544220572   1.0
