data_1
_audit_creation_method   'Generated by vasp2cif'
_cell_length_a    6.00236983208
_cell_length_b    4.2029631074
_cell_length_c    8.15821221511
_cell_angle_alpha    89.4698093788
_cell_angle_beta    96.1122955222
_cell_angle_gamma    102.36060065
_symmetry_space_group_name_H-M    'P 1'
loop_
_atom_site_label
_atom_site_type_symbol
_atom_site_fract_x
_atom_site_fract_y
_atom_site_fract_z
_atom_site_occupancy
C1   C   0.400534837260707   0.867214591617945   0.609974389616092   1.0
C2   C   0.541194641889291   0.825684298922440   0.473814077715382   1.0
H3   H   0.379037616077717   0.095310484324280   0.313204113108924   1.0
H4   H   0.591699173400954   0.936615156823365   0.232944097417068   1.0
H5   H   0.303025879236103   0.628783446285169   0.642979020152943   1.0
H6   H   0.512176769166295   0.971582457343601   0.719732312085966   1.0
H7   H   0.280582712905556   0.022212958218439   0.572174519736450   1.0
H8   H   0.801007730326084   0.612603300441656   0.411127724970598   1.0
H9   H   0.736732792986167   0.556209690705771   0.611867539602301   1.0
N13   N   0.503424511726571   0.963068044754927   0.330034528968632   1.0
N14   N   0.700250472455956   0.648531355112937   0.499058940229077   1.0
