data_1
_audit_creation_method   'Generated by vasp2cif'
_cell_length_a    8.13753399914
_cell_length_b    4.2093124283
_cell_length_c    6.00745923317
_cell_angle_alpha    102.421422035
_cell_angle_beta    83.8185912095
_cell_angle_gamma    90.5231099909
_symmetry_space_group_name_H-M    'P 1'
loop_
_atom_site_label
_atom_site_type_symbol
_atom_site_fract_x
_atom_site_fract_y
_atom_site_fract_z
_atom_site_occupancy
C1   C   0.391021306406906   0.799270480941864   0.373051403396509   1.0
C2   C   0.527392599695219   0.758611243430956   0.513726499046570   1.0
H3   H   0.688091455949809   0.029850999040910   0.352979074783704   1.0
H4   H   0.768361630488165   0.871937241409604   0.565579804139936   1.0
H5   H   0.357839656583877   0.560758807576143   0.276339078730167   1.0
H6   H   0.281003976175072   0.904506723438864   0.484537519325840   1.0
H7   H   0.429069576775397   0.952893327683455   0.252556775924646   1.0
H8   H   0.590155129866055   0.546162313042650   0.773232374726682   1.0
H9   H   0.389302695530524   0.487943442707575   0.708090116295928   1.0
N13   N   0.671278230373844   0.897154313914292   0.476782853709437   1.0
N14   N   0.502228082112865   0.581053007209889   0.672131940069036   1.0
