data_1
_audit_creation_method   'Generated by vasp2cif'
_cell_length_a    5.97984922108
_cell_length_b    4.11798715508
_cell_length_c    8.95919968342
_cell_angle_alpha    109.178409766
_cell_angle_beta    80.4088840078
_cell_angle_gamma    91.9707814762
_symmetry_space_group_name_H-M    'P 1'
loop_
_atom_site_label
_atom_site_type_symbol
_atom_site_fract_x
_atom_site_fract_y
_atom_site_fract_z
_atom_site_occupancy
C1   C   0.474236715641602   0.543530602316288   0.650508034123575   1.0
C2   C   0.472087450096957   0.316029699533459   0.482272564045296   1.0
H3   H   0.326827145429334   0.235141810776987   0.280815878699713   1.0
H4   H   0.204428600819199   0.564561002747290   0.451082826648964   1.0
H5   H   0.447762246702943   0.391590501929613   0.731144998404957   1.0
H6   H   0.640277060675629   0.660630447805190   0.659699439399589   1.0
H7   H   0.344789846404893   0.746395343637857   0.687190170292062   1.0
H8   H   0.630128296050316   0.896881214094890   0.305121607847809   1.0
H9   H   0.743713707272242   0.034145012684512   0.483053841420080   1.0
N13   N   0.324803304031562   0.375395830666029   0.398292035800040   1.0
N14   N   0.621438911059734   0.056794854668560   0.419989550600299   1.0
