data_1
_audit_creation_method   'Generated by vasp2cif'
_cell_length_a    5.84585527052
_cell_length_b    4.23218943318
_cell_length_c    7.521735657
_cell_angle_alpha    99.9051817004
_cell_angle_beta    79.4737724411
_cell_angle_gamma    93.3776908613
_symmetry_space_group_name_H-M    'P 1'
loop_
_atom_site_label
_atom_site_type_symbol
_atom_site_fract_x
_atom_site_fract_y
_atom_site_fract_z
_atom_site_occupancy
H4   H   0.287572510489483   0.744562769988008   0.501431292095681   1.0
H5   H   0.566709331671618   0.694741795542626   0.389872966514495   1.0
H6   H   0.406235495117855   0.958881486453109   0.338033350146652   1.0
H7   H   0.560523555243428   0.989779105559343   0.699814115800301   1.0
H8   H   0.681175070950530   0.224764640905896   0.529222238054082   1.0
H9   H   0.385124231545760   0.279963960426116   0.645466446686434   1.0
C10   C   0.522919514555859   0.108628121741738   0.591405940618003   1.0
N12   N   0.439111096456195   0.858723312821070   0.446816476648102   1.0
