data_1
_audit_creation_method   'Generated by vasp2cif'
_cell_length_a    6.06519825555
_cell_length_b    4.26195991659
_cell_length_c    7.71073860442
_cell_angle_alpha    106.569604804
_cell_angle_beta    85.3501561155
_cell_angle_gamma    73.5280790758
_symmetry_space_group_name_H-M    'P 1'
loop_
_atom_site_label
_atom_site_type_symbol
_atom_site_fract_x
_atom_site_fract_y
_atom_site_fract_z
_atom_site_occupancy
Cl1   Cl   0.947463199055917   0.780632908812414   0.258871036581098   1.0
Cl2   Cl   0.445121439823616   0.903657264916554   0.965249508717939   1.0
Cl3   Cl   0.080242749763173   0.434955653387220   0.706855956096021   1.0
H4   H   0.728377845921656   0.282685516994086   0.473936945528429   1.0
H5   H   0.554060608803198   0.621744735461959   0.653536058572548   1.0
H6   H   0.740404295100880   0.670978765791929   0.498181287823471   1.0
H7   H   0.343091565866892   0.417065098009139   0.398229763637680   1.0
H8   H   0.328150698483689   0.857683576100662   0.449648947912209   1.0
H9   H   0.528633565368210   0.537401524692868   0.255247277765953   1.0
C10   C   0.442314665084879   0.591321742955060   0.394607232546640   1.0
N12   N   0.625472944878574   0.539607388213874   0.514992705092034   1.0
