data_1
_audit_creation_method   'Generated by vasp2cif'
_cell_length_a    7.66145199899
_cell_length_b    4.13374921191
_cell_length_c    5.67221420915
_cell_angle_alpha    82.643711997
_cell_angle_beta    93.7999698128
_cell_angle_gamma    90.3511555435
_symmetry_space_group_name_H-M    'P 1'
loop_
_atom_site_label
_atom_site_type_symbol
_atom_site_fract_x
_atom_site_fract_y
_atom_site_fract_z
_atom_site_occupancy
Cl1   Cl   0.202871663539511   0.726228493801152   0.079162099593915   1.0
Cl2   Cl   0.907119572266367   0.090965767763343   0.487631831150743   1.0
Cl3   Cl   0.662745887286832   0.730906092468828   0.002883271719682   1.0
H4   H   0.404062717256565   0.010375566420144   0.298622726802030   1.0
H5   H   0.600087532626539   0.067793508438228   0.444290633770756   1.0
H6   H   0.503207346636785   0.370436071257600   0.265434751957685   1.0
H7   H   0.362431793414082   0.049315149386565   0.718395075169603   1.0
H8   H   0.469942711278065   0.434481005410959   0.686198187014739   1.0
H9   H   0.262223582957063   0.384350076425591   0.527572062590657   1.0
C10   C   0.385510878491765   0.268386987487546   0.596639762090902   1.0
N12   N   0.478729528943582   0.170955411330397   0.388995782680759   1.0
