data_1
_audit_creation_method   'Generated by vasp2cif'
_cell_length_a    7.19120173686
_cell_length_b    4.53789421229
_cell_length_c    7.26149006626
_cell_angle_alpha    51.5013765981
_cell_angle_beta    100.109636989
_cell_angle_gamma    103.457841659
_symmetry_space_group_name_H-M    'P 1'
loop_
_atom_site_label
_atom_site_type_symbol
_atom_site_fract_x
_atom_site_fract_y
_atom_site_fract_z
_atom_site_occupancy
H4   H   0.625053294553253   0.489610692518793   0.554990059049335   1.0
H5   H   0.418749187347668   0.611213326025423   0.395655557024088   1.0
H6   H   0.419203338310906   0.313638223885729   0.694961249049443   1.0
H7   H   0.511045923330629   0.147236812961585   0.388551600026984   1.0
H8   H   0.522609616311971   0.834842599207154   0.705605032691235   1.0
H9   H   0.296689264127981   0.952809634041324   0.549367604552571   1.0
C10   C   0.450103497727880   0.052384961945628   0.547614634512297   1.0
N12   N   0.480390588370304   0.391207737952111   0.548277739432617   1.0
