data_1
_audit_creation_method   'Generated by vasp2cif'
_cell_length_a    5.84553607493
_cell_length_b    5.86428900353
_cell_length_c    5.86382222898
_cell_angle_alpha    97.8880477824
_cell_angle_beta    96.5798932916
_cell_angle_gamma    96.3540877212
_symmetry_space_group_name_H-M    'P 1'
loop_
_atom_site_label
_atom_site_type_symbol
_atom_site_fract_x
_atom_site_fract_y
_atom_site_fract_z
_atom_site_occupancy
C1   C   0.298704264256656   0.287709133219685   0.333181518830230   1.0
H2   H   0.077041938600743   0.262279140650662   0.579308885982982   1.0
H3   H   0.073235846552301   0.532242835878925   0.315102771300680   1.0
H4   H   0.556125694196318   0.076745307657227   0.313955102575200   1.0
H5   H   0.553587514802103   0.275074858892090   0.119225059398950   1.0
H6   H   0.275641524985005   0.538255596929453   0.121120022320703   1.0
H7   H   0.280849065866597   0.069020042318762   0.578484601244114   1.0
N11   N   0.206644105022072   0.193529184586780   0.503215867163760   1.0
N12   N   0.203886270251196   0.459712259993459   0.244634784219315   1.0
N13   N   0.480500786892378   0.205031145744307   0.246907467444970   1.0
