data_1
_audit_creation_method   'Generated by vasp2cif'
_cell_length_a    5.62675677545
_cell_length_b    5.64861762358
_cell_length_c    5.56129871013
_cell_angle_alpha    109.630910907
_cell_angle_beta    93.5783156184
_cell_angle_gamma    81.0785195603
_symmetry_space_group_name_H-M    'P 1'
loop_
_atom_site_label
_atom_site_type_symbol
_atom_site_fract_x
_atom_site_fract_y
_atom_site_fract_z
_atom_site_occupancy
Cl1   Cl   0.082167481369979   0.032035294430777   0.511224930002960   1.0
Cl2   Cl   0.538623990381339   0.978551899375852   0.009035814421352   1.0
Cl3   Cl   0.970946787826591   0.424159537211168   0.152696863895308   1.0
H4   H   0.324201931058063   0.496175562314505   0.357111813050480   1.0
H5   H   0.633578513818556   0.448021872803849   0.362195125259810   1.0
H6   H   0.480054667851000   0.707412512705140   0.579233535883333   1.0
H7   H   0.366193254221848   0.260549637852804   0.587656513139166   1.0
N9   N   0.478775298751934   0.517963414035016   0.472165655435624   1.0
