data_1
_audit_creation_method   'Generated by vasp2cif'
_cell_length_a    5.72784574419
_cell_length_b    4.26839143277
_cell_length_c    7.02752807153
_cell_angle_alpha    107.934823042
_cell_angle_beta    84.1936554332
_cell_angle_gamma    92.3615737464
_symmetry_space_group_name_H-M    'P 1'
loop_
_atom_site_label
_atom_site_type_symbol
_atom_site_fract_x
_atom_site_fract_y
_atom_site_fract_z
_atom_site_occupancy
H4   H   0.509474525477877   0.906716186429442   0.365427275004443   1.0
H5   H   0.645560705888634   0.944082773720659   0.577472625744768   1.0
H6   H   0.365947404500915   0.084590170706392   0.598685376572156   1.0
H7   H   0.252221816698892   0.552139003483070   0.447922789417042   1.0
N9   N   0.485624815841682   0.906566139533830   0.515214492767797   1.0
