data_1
_audit_creation_method   'Generated by vasp2cif'
_cell_length_a    5.62416446157
_cell_length_b    4.08693110715
_cell_length_c    7.22582148869
_cell_angle_alpha    105.217288878
_cell_angle_beta    80.1514821134
_cell_angle_gamma    95.5786107633
_symmetry_space_group_name_H-M    'P 1'
loop_
_atom_site_label
_atom_site_type_symbol
_atom_site_fract_x
_atom_site_fract_y
_atom_site_fract_z
_atom_site_occupancy
H4   H   0.433734327681037   0.180617871393018   0.506944881385650   1.0
H5   H   0.543129235409175   0.981386753470403   0.651771917985705   1.0
H6   H   0.236327809657844   0.995301501972023   0.663275595542927   1.0
H7   H   0.244629024847050   0.600395169891279   0.395978233216525   1.0
N9   N   0.403619556006724   0.981679595134814   0.573386672432882   1.0
