data_1
_audit_creation_method   'Generated by vasp2cif'
_cell_length_a    5.81135229523
_cell_length_b    4.23379925392
_cell_length_c    6.83139438878
_cell_angle_alpha    106.411211814
_cell_angle_beta    86.7745496274
_cell_angle_gamma    87.2998612025
_symmetry_space_group_name_H-M    'P 1'
loop_
_atom_site_label
_atom_site_type_symbol
_atom_site_fract_x
_atom_site_fract_y
_atom_site_fract_z
_atom_site_occupancy
H4   H   0.244646470241641   0.117484286580265   0.544013556121008   1.0
H5   H   0.503793923480067   0.109434268714317   0.655562570794778   1.0
H6   H   0.288569270037336   0.896823955876904   0.717105787690734   1.0
H7   H   0.323928266467952   0.580112625687811   0.379135976127912   1.0
N9   N   0.363524952362674   0.978552099803998   0.599363211049223   1.0
