data_1
_audit_creation_method   'Generated by vasp2cif'
_cell_length_a    7.29148392543
_cell_length_b    4.09176436343
_cell_length_c    5.63745213488
_cell_angle_alpha    84.07379826
_cell_angle_beta    96.582285991
_cell_angle_gamma    72.7906003974
_symmetry_space_group_name_H-M    'P 1'
loop_
_atom_site_label
_atom_site_type_symbol
_atom_site_fract_x
_atom_site_fract_y
_atom_site_fract_z
_atom_site_occupancy
H4   H   0.610572501005329   0.482529034220399   0.313578712912772   1.0
H5   H   0.627094070919675   0.482480283405181   0.620169975457806   1.0
H6   H   0.361007133675478   0.348746226404323   0.620210557701796   1.0
H7   H   0.466784475489526   0.822524801136410   0.425360678121038   1.0
N9   N   0.534550630005711   0.558036756639119   0.455051714114077   1.0
