data_1
_audit_creation_method   'Generated by vasp2cif'
_cell_length_a    5.77047085983
_cell_length_b    5.75947393893
_cell_length_c    5.71598201352
_cell_angle_alpha    79.0205302978
_cell_angle_beta    81.8264239405
_cell_angle_gamma    84.6485744149
_symmetry_space_group_name_H-M    'P 1'
loop_
_atom_site_label
_atom_site_type_symbol
_atom_site_fract_x
_atom_site_fract_y
_atom_site_fract_z
_atom_site_occupancy
N5   N   0.097198644860541   0.738506268065478   0.856456407748560   1.0
N6   N   0.242597375947788   0.943725617178465   0.112282997784440   1.0
H7   H   0.234687154081406   0.614504735622347   0.862190898329715   1.0
H8   H   0.389872818925930   0.832970196615456   0.128017730358614   1.0
H9   H   0.968936157549237   0.725641285252543   0.755332835023623   1.0
H10   H   0.210812582420516   0.070426066379170   0.217883205562274   1.0
H11   H   0.926486868355440   0.031727069473391   0.979781984985223   1.0
C12   C   0.081139618815548   0.909348216787670   0.982723166799246   1.0
