data_1
_audit_creation_method   'Generated by vasp2cif'
_cell_length_a    5.73196062977
_cell_length_b    5.76225969574
_cell_length_c    5.72832796812
_cell_angle_alpha    91.9679980856
_cell_angle_beta    104.448976066
_cell_angle_gamma    93.0069875322
_symmetry_space_group_name_H-M    'P 1'
loop_
_atom_site_label
_atom_site_type_symbol
_atom_site_fract_x
_atom_site_fract_y
_atom_site_fract_z
_atom_site_occupancy
Cl2   Cl   0.494522202774341   0.905824105975405   0.632117485295588   1.0
Cl3   Cl   0.453109799976581   0.357394010512863   0.171455158709875   1.0
Cl4   Cl   0.041191243415668   0.371652702894259   0.574942974534416   1.0
N5   N   0.133277519410399   0.822115022142427   0.011591944122415   1.0
N6   N   0.869194192047189   0.847729065824090   0.260206471674714   1.0
H7   H   0.189330953407946   0.662628021857351   0.065628706407992   1.0
H8   H   0.906073102087454   0.689891875172172   0.332269839127555   1.0
H9   H   0.216351516483932   0.900139101736983   0.894485120425060   1.0
H10   H   0.755353819880270   0.944723069508548   0.326866416000854   1.0
H11   H   0.941399859550586   0.107701455005724   0.045368820492861   1.0
C12   C   0.979526511110585   0.933805863125123   0.103322900382771   1.0
