data_1
_audit_creation_method   'Generated by vasp2cif'
_cell_length_a    5.72738065568
_cell_length_b    5.93625655528
_cell_length_c    5.93526227819
_cell_angle_alpha    101.55796695
_cell_angle_beta    100.043340319
_cell_angle_gamma    73.0803277397
_symmetry_space_group_name_H-M    'P 1'
loop_
_atom_site_label
_atom_site_type_symbol
_atom_site_fract_x
_atom_site_fract_y
_atom_site_fract_z
_atom_site_occupancy
Cl2   Cl   0.509513987254572   0.913730102062971   0.211000365712231   1.0
Cl3   Cl   0.541089216512162   0.308154117083127   0.809772554148616   1.0
Cl4   Cl   0.949365715761033   0.381742883259093   0.433761278093591   1.0
N5   N   0.923867808487294   0.688669014546555   0.994203454019051   1.0
N6   N   0.192382096750236   0.862670265408468   0.672021141066359   1.0
H7   H   0.128642900562866   0.810616974808745   0.799438808678019   1.0
H8   H   0.048895610388506   0.980895294124679   0.592837722156013   1.0
H9   H   0.851782610427975   0.543568062769779   0.956387140580190   1.0
H10   H   0.318221505832675   0.956528412227478   0.747180785523121   1.0
H11   H   0.854154385538102   0.043006036517085   0.152551100005255   1.0
C12   C   0.802439493393486   0.876272496890579   0.102724562152709   1.0
