data_1
_audit_creation_method   'Generated by vasp2cif'
_cell_length_a    6.65533922887
_cell_length_b    5.17873459345
_cell_length_c    7.34128354411
_cell_angle_alpha    89.7973187163
_cell_angle_beta    89.8068250965
_cell_angle_gamma    85.9348635173
_symmetry_space_group_name_H-M    'P 1'
loop_
_atom_site_label
_atom_site_type_symbol
_atom_site_fract_x
_atom_site_fract_y
_atom_site_fract_z
_atom_site_occupancy
C1   C   0.438287469962766   0.369280533575690   0.464880597387882   1.0
C2   C   0.568582136581142   0.734344069327307   0.634171230124998   1.0
C3   C   0.354373320663633   0.432019674263920   0.793950562895361   1.0
C4   C   0.204527174465547   0.735711545375622   0.561677593414146   1.0
H5   H   0.233573824004786   0.829289321444804   0.432265706190016   1.0
H6   H   0.171752135081938   0.879198569633061   0.667656787560020   1.0
H7   H   0.461884262383755   0.472421989450304   0.337835169354548   1.0
H8   H   0.594317555765585   0.826933148671834   0.503655295991756   1.0
H9   H   0.227572161327465   0.313063921745645   0.776718864481715   1.0
H10   H   0.319994769371803   0.579335049457192   0.897340374338711   1.0
H11   H   0.531828259521610   0.876935944163655   0.739663185706156   1.0
H12   H   0.079760390541871   0.611450609702878   0.548520407760300   1.0
H13   H   0.490651457759668   0.316194189604268   0.831576457641155   1.0
H14   H   0.575092153179519   0.254969677398058   0.502251036403010   1.0
H15   H   0.699619346653570   0.608973983571921   0.673826021153026   1.0
H16   H   0.310023375402928   0.252139368105667   0.451531915044626   1.0
N20   N   0.391348672027028   0.567563089310958   0.613981920928957   1.0
