data_1
_audit_creation_method   'Generated by vasp2cif'
_cell_length_a    5.73894520065
_cell_length_b    5.54283585233
_cell_length_c    5.65891481926
_cell_angle_alpha    93.1739294941
_cell_angle_beta    84.1173251788
_cell_angle_gamma    87.0564669033
_symmetry_space_group_name_H-M    'P 1'
loop_
_atom_site_label
_atom_site_type_symbol
_atom_site_fract_x
_atom_site_fract_y
_atom_site_fract_z
_atom_site_occupancy
Cl1   Cl   0.928040668807725   0.963499453638200   0.556810566673420   1.0
Cl2   Cl   0.459123356985394   0.986027311263172   0.039446436500029   1.0
Cl3   Cl   0.022964676559830   0.515077190854853   0.997468345325913   1.0
H4   H   0.273283894738682   0.560177125288533   0.536172970874532   1.0
H5   H   0.509581374351264   0.686861948895839   0.425660898378197   1.0
H6   H   0.495546537453024   0.330740789468628   0.775727758465869   1.0
H7   H   0.736654519990275   0.454520651632926   0.661759574759834   1.0
H8   H   0.528224218382078   0.629867636240078   0.830693620633809   1.0
N10   N   0.448925193398559   0.526578292343999   0.482697836838014   1.0
N11   N   0.558307300541543   0.485149960360012   0.703166927780721   1.0
