data_1
_audit_creation_method   'Generated by vasp2cif'
_cell_length_a    3.99536174659
_cell_length_b    5.91685558169
_cell_length_c    7.45665288029
_cell_angle_alpha    94.7646567874
_cell_angle_beta    108.445630884
_cell_angle_gamma    87.7469348221
_symmetry_space_group_name_H-M    'P 1'
loop_
_atom_site_label
_atom_site_type_symbol
_atom_site_fract_x
_atom_site_fract_y
_atom_site_fract_z
_atom_site_occupancy
Cl1   Cl   0.499635041590061   0.045591059748907   0.444700392140498   1.0
Cl2   Cl   0.158981220074622   0.965911934687728   0.863257598865591   1.0
Cl3   Cl   0.803029750603125   0.461256799380406   0.134493477948747   1.0
H4   H   0.303861563917006   0.527370378518678   0.460926934054362   1.0
H5   H   0.382342479538791   0.732812977016740   0.633056788219292   1.0
H6   H   0.953499607142637   0.491926763230013   0.666826021337287   1.0
H7   H   0.234045652371654   0.270385366609895   0.661268397704137   1.0
H8   H   0.343404252935911   0.465211524931321   0.844204318814846   1.0
N10   N   0.423379598738065   0.563481536589843   0.603798132110712   1.0
N11   N   0.219644946717226   0.441698898547049   0.699030428333845   1.0
