data_1
_audit_creation_method   'Generated by vasp2cif'
_cell_length_a    8.68911561417
_cell_length_b    5.58207915826
_cell_length_c    5.73718353777
_cell_angle_alpha    112.039762327
_cell_angle_beta    43.274487434
_cell_angle_gamma    118.23904456
_symmetry_space_group_name_H-M    'P 1'
loop_
_atom_site_label
_atom_site_type_symbol
_atom_site_fract_x
_atom_site_fract_y
_atom_site_fract_z
_atom_site_occupancy
Cl1   Cl   0.529187332141454   0.897719448703185   0.525557025878548   1.0
Cl2   Cl   0.169304382761325   0.972709554867151   0.449323763508758   1.0
Cl3   Cl   0.912748482580206   0.491659279090122   0.068004273251518   1.0
H4   H   0.428068363725728   0.675848284862653   0.139562871956649   1.0
H5   H   0.553245904234629   0.620221475331348   0.735930774677421   1.0
H6   H   0.617908189451057   0.445702004961120   0.063046054084644   1.0
H7   H   0.682728807625629   0.294356640887685   0.697707786526919   1.0
H8   H   0.828734025455446   0.628360180867119   0.714505712934411   1.0
N10   N   0.478641559532576   0.532839085486636   0.940171474829619   1.0
N11   N   0.666248600582925   0.474513566112357   0.847067828979320   1.0
