data_1
_audit_creation_method   'Generated by vasp2cif'
_cell_length_a    7.01845724431
_cell_length_b    5.75966704187
_cell_length_c    4.32278811047
_cell_angle_alpha    88.2642098664
_cell_angle_beta    72.8848356997
_cell_angle_gamma    92.0124175404
_symmetry_space_group_name_H-M    'P 1'
loop_
_atom_site_label
_atom_site_type_symbol
_atom_site_fract_x
_atom_site_fract_y
_atom_site_fract_z
_atom_site_occupancy
Cl1   Cl   0.530559646093174   0.100656747881807   0.662419929931495   1.0
Cl2   Cl   0.088157505123455   0.922311764739490   0.414234067140718   1.0
Cl3   Cl   0.938744652188817   0.408109858030542   0.968982139180895   1.0
H4   H   0.532438314667552   0.496635187775055   0.885228699404678   1.0
H5   H   0.383401849293335   0.720248882018829   0.982496501474863   1.0
H6   H   0.208588057443762   0.354669021593111   0.168991674461623   1.0
H7   H   0.367696903785927   0.313493001582081   0.393190485779421   1.0
H8   H   0.208875393804696   0.532486355970221   0.462989308379811   1.0
N10   N   0.456054448652530   0.595265700924664   0.071735871481288   1.0
N11   N   0.300819057632800   0.437020058828907   0.284827325088706   1.0
