data_1
_audit_creation_method   'Generated by vasp2cif'
_cell_length_a    7.66440533151
_cell_length_b    3.94618614718
_cell_length_c    5.77585958132
_cell_angle_alpha    94.6102527226
_cell_angle_beta    90.7056745429
_cell_angle_gamma    72.7986937636
_symmetry_space_group_name_H-M    'P 1'
loop_
_atom_site_label
_atom_site_type_symbol
_atom_site_fract_x
_atom_site_fract_y
_atom_site_fract_z
_atom_site_occupancy
H4   H   0.537638937196412   0.538107052318907   0.714767493030401   1.0
H5   H   0.448946631263986   0.569690535985558   0.452261706509447   1.0
H6   H   0.812385170994496   0.554850997234333   0.579286459337801   1.0
H7   H   0.737702951698438   0.566728313469682   0.305362149496098   1.0
H8   H   0.649344107174990   0.922446655937172   0.501581810006385   1.0
N10   N   0.566031456020148   0.460202514140924   0.541941360138367   1.0
N11   N   0.698476156154577   0.643661440377102   0.478156817900448   1.0
