data_1
_audit_creation_method   'Generated by vasp2cif'
_cell_length_a    7.23572716347
_cell_length_b    4.27671367731
_cell_length_c    5.71659910685
_cell_angle_alpha    92.8442493799
_cell_angle_beta    103.799639038
_cell_angle_gamma    76.7256659991
_symmetry_space_group_name_H-M    'P 1'
loop_
_atom_site_label
_atom_site_type_symbol
_atom_site_fract_x
_atom_site_fract_y
_atom_site_fract_z
_atom_site_occupancy
Cl1   Cl   0.458426363773832   0.203720958792040   0.964258206897938   1.0
Cl2   Cl   0.058097825250485   0.847361586008716   0.558623841666083   1.0
Cl3   Cl   0.906059186580073   0.435771272816083   0.010423831899104   1.0
H4   H   0.452542476251118   0.540931805932416   0.569318007460332   1.0
H5   H   0.583113492348311   0.803683951010363   0.666350988848841   1.0
H6   H   0.781881918051802   0.302484024687374   0.593580726619933   1.0
H7   H   0.653959604048843   0.339767492563752   0.298806779648039   1.0
H8   H   0.797695580800131   0.591492009820620   0.422750336016342   1.0
N10   N   0.531104507287999   0.682909998668087   0.513660557060959   1.0
N11   N   0.701906869652561   0.461301830260929   0.455631339559787   1.0
