data_1
_audit_creation_method   'Generated by vasp2cif'
_cell_length_a    7.43533889691
_cell_length_b    5.45963900193
_cell_length_c    4.41078818363
_cell_angle_alpha    90.0095519776
_cell_angle_beta    106.876510259
_cell_angle_gamma    76.0077253741
_symmetry_space_group_name_H-M    'P 1'
loop_
_atom_site_label
_atom_site_type_symbol
_atom_site_fract_x
_atom_site_fract_y
_atom_site_fract_z
_atom_site_occupancy
H4   H   0.478906873123108   0.622730294855984   0.441535247625204   1.0
H5   H   0.467330353233194   0.629836868495751   0.805818276884239   1.0
H6   H   0.178211371047958   0.559709216650838   0.454822518599030   1.0
H7   H   0.317495312514517   0.294559772531940   0.354302306875837   1.0
H8   H   0.301823989246898   0.307575739912714   0.721144101217405   1.0
N10   N   0.481683087631446   0.509219179605452   0.630058759273858   1.0
N11   N   0.305427755542681   0.416114888521555   0.531985964196132   1.0
