data_1
_audit_creation_method   'Generated by vasp2cif'
_cell_length_a    5.93783528379
_cell_length_b    4.00015856169
_cell_length_c    7.47396373301
_cell_angle_alpha    101.698131734
_cell_angle_beta    93.5963960908
_cell_angle_gamma    68.5038451821
_symmetry_space_group_name_H-M    'P 1'
loop_
_atom_site_label
_atom_site_type_symbol
_atom_site_fract_x
_atom_site_fract_y
_atom_site_fract_z
_atom_site_occupancy
H4   H   0.501299272359205   0.904709528609949   0.357052130437530   1.0
H5   H   0.261925663053041   0.110724735388693   0.497203465112982   1.0
H6   H   0.743631072254502   0.089111995540975   0.564166101971900   1.0
H7   H   0.501891658330507   0.472192558200533   0.552062648127929   1.0
H8   H   0.530719194853624   0.251690631623141   0.729370780641133   1.0
N10   N   0.444335683789312   0.963632453661710   0.490607956434126   1.0
N11   N   0.559640349595789   0.215260658820760   0.590008478843444   1.0
