data_1
_audit_creation_method   'Generated by vasp2cif'
_cell_length_a    7.04006792048
_cell_length_b    5.70369415556
_cell_length_c    4.2997036854
_cell_angle_alpha    68.3314070776
_cell_angle_beta    107.270281686
_cell_angle_gamma    102.101424175
_symmetry_space_group_name_H-M    'P 1'
loop_
_atom_site_label
_atom_site_type_symbol
_atom_site_fract_x
_atom_site_fract_y
_atom_site_fract_z
_atom_site_occupancy
Cl2   Cl   0.584429998894535   0.909860967235630   0.102259028871920   1.0
Cl3   Cl   0.184247395824997   0.037030782722034   0.340010363839440   1.0
Cl4   Cl   0.880556778172497   0.405104328412122   0.518649337715338   1.0
N5   N   0.393591472044399   0.471453092681308   0.723947456933296   1.0
H6   H   0.238685662941158   0.447756592287455   0.653302802128728   1.0
H7   H   0.447985209983031   0.296216348626494   0.848524898701285   1.0
H8   H   0.448291979441635   0.569325252502345   0.506620592217445   1.0
H9   H   0.440224037763862   0.582657517203160   0.882491597730805   1.0
