data_1
_audit_creation_method   'Generated by vasp2cif'
_cell_length_a    5.64229350452
_cell_length_b    5.64495476355
_cell_length_c    5.65206238749
_cell_angle_alpha    83.3075676425
_cell_angle_beta    83.2796141914
_cell_angle_gamma    83.417151562
_symmetry_space_group_name_H-M    'P 1'
loop_
_atom_site_label
_atom_site_type_symbol
_atom_site_fract_x
_atom_site_fract_y
_atom_site_fract_z
_atom_site_occupancy
N5   N   0.529898651737909   0.530749871990757   0.583516895674492   1.0
H6   H   0.370393268750007   0.633487914076667   0.548915813508877   1.0
H7   H   0.493937290835760   0.372975960183545   0.689151495568012   1.0
H8   H   0.629463252601042   0.491621140005797   0.423700036949185   1.0
H9   H   0.628160534274251   0.626923436516591   0.673869696260397   1.0
