data_1
_audit_creation_method   'Generated by vasp2cif'
_cell_length_a    4.30015066107
_cell_length_b    5.70548002019
_cell_length_c    7.03658929881
_cell_angle_alpha    77.8786150901
_cell_angle_beta    72.6978555196
_cell_angle_gamma    68.2991721168
_symmetry_space_group_name_H-M    'P 1'
loop_
_atom_site_label
_atom_site_type_symbol
_atom_site_fract_x
_atom_site_fract_y
_atom_site_fract_z
_atom_site_occupancy
N5   N   0.765580156708957   0.503892293264521   0.602857372770515   1.0
H6   H   0.694988787998170   0.480299932660984   0.757874192086703   1.0
H7   H   0.889717486675089   0.328589555178254   0.548508885326569   1.0
H8   H   0.548252978371785   0.602032972532683   0.548209249496281   1.0
H9   H   0.924645796256314   0.614629890721773   0.556005163704448   1.0
