data_1
_audit_creation_method   'Generated by vasp2cif'
_cell_length_a    6.25629249351
_cell_length_b    6.22933240989
_cell_length_c    5.96255069628
_cell_angle_alpha    94.4695243089
_cell_angle_beta    93.3729960082
_cell_angle_gamma    102.686256558
_symmetry_space_group_name_H-M    'P 1'
loop_
_atom_site_label
_atom_site_type_symbol
_atom_site_fract_x
_atom_site_fract_y
_atom_site_fract_z
_atom_site_occupancy
C1   C   0.429625550568474   0.391289442404542   0.709274697460870   1.0
C2   C   0.368060354613164   0.614255743933754   0.391947008562688   1.0
C3   C   0.645850788242235   0.380258260309340   0.374123429074793   1.0
H4   H   0.356047408727712   0.499384922040143   0.816711450229789   1.0
H5   H   0.295895757013163   0.716909046618504   0.507827797207732   1.0
H6   H   0.768736438047441   0.324628502378630   0.477610981467698   1.0
H7   H   0.722724479305363   0.478873602665985   0.245442799666250   1.0
H8   H   0.451837332250228   0.711179630276476   0.265412772157745   1.0
H9   H   0.653131208579502   0.652785849296365   0.599445322113787   1.0
H10   H   0.521760850850129   0.238168284228443   0.297218983539963   1.0
H11   H   0.304514138720968   0.252626707908114   0.627863883733163   1.0
H12   H   0.241006489405223   0.476561220148937   0.311440076529159   1.0
H13   H   0.556332573942427   0.333136864480217   0.802930743601742   1.0
Cl14   Cl   0.962275733824484   0.954626654466800   0.437715978504023   1.0
Cl15   Cl   0.978111196875304   0.575348088199355   0.913747708461585   1.0
Cl16   Cl   0.586466958130217   0.942680727680859   0.925348383708979   1.0
N17   N   0.534121221664577   0.520755179858298   0.524666689849077   1.0
