data_1
_audit_creation_method   'Generated by vasp2cif'
_cell_length_a    6.16608835185
_cell_length_b    6.21276726924
_cell_length_c    6.16956038062
_cell_angle_alpha    96.4024248242
_cell_angle_beta    98.284260922
_cell_angle_gamma    96.2206718749
_symmetry_space_group_name_H-M    'P 1'
loop_
_atom_site_label
_atom_site_type_symbol
_atom_site_fract_x
_atom_site_fract_y
_atom_site_fract_z
_atom_site_occupancy
C1   C   0.597806765386842   0.672794490569785   0.376726950894330   1.0
C2   C   0.318470852974798   0.698857938303810   0.631883420165039   1.0
C3   C   0.559997551543262   0.401713692773186   0.642888005760774   1.0
H4   H   0.676679425348034   0.556025245455032   0.280140262730704   1.0
H5   H   0.231477515349923   0.796253337115736   0.520915598362713   1.0
H6   H   0.637439985508252   0.290249099965059   0.538648842175505   1.0
H7   H   0.439933361788682   0.312349987989954   0.723131178464783   1.0
H8   H   0.202058833350641   0.600111657811411   0.708832030204356   1.0
H9   H   0.325268349663332   0.449752878787827   0.382395140635424   1.0
H10   H   0.684659338597307   0.505512002858879   0.764636241567125   1.0
H11   H   0.503585568577229   0.768558338646564   0.269292814151065   1.0
H12   H   0.439196836035691   0.802850887974650   0.757449049219339   1.0
H13   H   0.719941372232277   0.779595779811764   0.498561698994891   1.0
Cl14   Cl   0.016307111759069   0.129924391634802   0.673049058911708   1.0
Cl15   Cl   0.027140580106249   0.706050319100839   0.078570828620663   1.0
Cl16   Cl   0.612200010614060   0.124239865589729   0.085772940827539   1.0
N17   N   0.441213171251910   0.548017267884532   0.499234716782212   1.0
