data_1
_audit_creation_method   'Generated by vasp2cif'
_cell_length_a    5.96938425089
_cell_length_b    6.16669732202
_cell_length_c    6.12288024879
_cell_angle_alpha    96.0258348915
_cell_angle_beta    81.5631656397
_cell_angle_gamma    85.9564531621
_symmetry_space_group_name_H-M    'P 1'
loop_
_atom_site_label
_atom_site_type_symbol
_atom_site_fract_x
_atom_site_fract_y
_atom_site_fract_z
_atom_site_occupancy
C1   C   0.341042171526148   0.573550737772479   0.336942403877273   1.0
C2   C   0.643606704593942   0.784963684487607   0.475805863290269   1.0
C3   C   0.572515328558502   0.424052068270726   0.605100056885327   1.0
H4   H   0.268160757132712   0.725733741189060   0.292547713769544   1.0
H5   H   0.764089552677937   0.706915671559599   0.333318534709470   1.0
H6   H   0.440865461495896   0.315186028702492   0.644896102749890   1.0
H7   H   0.652037936456757   0.472889823486788   0.749646832401886   1.0
H8   H   0.558635769196997   0.934019447032959   0.434903797604306   1.0
H9   H   0.347269212905552   0.700816327859791   0.661736682106827   1.0
H10   H   0.701488755258566   0.346458362714841   0.469567306162425   1.0
H11   H   0.462429131457050   0.488944835563565   0.198616751581767   1.0
H12   H   0.727365024556676   0.818188685315342   0.619811136872535   1.0
H13   H   0.209562176441778   0.467689137624646   0.389113588896329   1.0
N17   N   0.466436773221766   0.627563780352688   0.530281399415593   1.0
