data_1
_audit_creation_method   'Generated by vasp2cif'
_cell_length_a    4.82918584251
_cell_length_b    7.4128749705
_cell_length_c    6.84031364168
_cell_angle_alpha    101.608990613
_cell_angle_beta    77.4936611785
_cell_angle_gamma    89.1018273559
_symmetry_space_group_name_H-M    'P 1'
loop_
_atom_site_label
_atom_site_type_symbol
_atom_site_fract_x
_atom_site_fract_y
_atom_site_fract_z
_atom_site_occupancy
C1   C   0.487124190421646   0.574522207341680   0.366393879559062   1.0
C2   C   0.728438685164413   0.793693612885740   0.592661162289573   1.0
C3   C   0.715327887713222   0.463097464709435   0.618809693171748   1.0
H4   H   0.371308887212287   0.692375455726605   0.342397536342098   1.0
H5   H   0.918976557066152   0.766180127803885   0.470228538552107   1.0
H6   H   0.585999507913307   0.344288176495006   0.605778938963923   1.0
H7   H   0.751061966457016   0.501581266605633   0.773261988932788   1.0
H8   H   0.598889691084423   0.909414546034697   0.577918265704234   1.0
H9   H   0.374396361508204   0.653566432053402   0.688276330078544   1.0
H10   H   0.917507340534506   0.434567323440831   0.507508544334492   1.0
H11   H   0.685177529527216   0.544389296121985   0.249964588071443   1.0
H12   H   0.782638960400384   0.820128770127667   0.741728217368433   1.0
H13   H   0.362774334377036   0.453176148629773   0.360473945535290   1.0
Cl14   Cl   0.406345501037336   0.202247217758192   0.949363577104577   1.0
Cl15   Cl   0.107900687630227   0.716456909449875   0.004902286966150   1.0
Cl16   Cl   0.215426461947899   0.089526661151169   0.457137915189236   1.0
N17   N   0.559771131693985   0.623381775880894   0.574395284753948   1.0
