data_1
_audit_creation_method   'Generated by vasp2cif'
_cell_length_a    8.15453921453
_cell_length_b    4.91473644612
_cell_length_c    5.8771027442
_cell_angle_alpha    100.688240692
_cell_angle_beta    96.4106260225
_cell_angle_gamma    91.630571552
_symmetry_space_group_name_H-M    'P 1'
loop_
_atom_site_label
_atom_site_type_symbol
_atom_site_fract_x
_atom_site_fract_y
_atom_site_fract_z
_atom_site_occupancy
C1   C   0.464298526532033   0.532822496930031   0.768018661536175   1.0
C2   C   0.477537989105748   0.799873543912128   0.449415709274625   1.0
C3   C   0.679145355635967   0.440250943417865   0.488615056013614   1.0
H4   H   0.411121809995876   0.705898039918480   0.874551986725649   1.0
H5   H   0.411625551550038   0.963003644910010   0.546677804730606   1.0
H6   H   0.743522390136569   0.325144042759696   0.610189794387757   1.0
H7   H   0.768534923868536   0.550357655492611   0.410231533652926   1.0
H8   H   0.562417187699701   0.881939261887247   0.345520945049579   1.0
H9   H   0.655775614203058   0.799707975479457   0.731475990839428   1.0
H10   H   0.596623797117971   0.304430679002294   0.354784753341413   1.0
H11   H   0.366794296135041   0.400945912843568   0.654527674326957   1.0
H12   H   0.389443093673826   0.647575312072085   0.338798536511121   1.0
H13   H   0.538108115303132   0.414305320333654   0.877251760447301   1.0
N17   N   0.575866848904219   0.652858013609261   0.618597584318884   1.0
