data_1
_audit_creation_method   'Generated by vasp2cif'
_cell_length_a    6.21546669271
_cell_length_b    4.82281804477
_cell_length_c    7.71860351122
_cell_angle_alpha    91.1913183944
_cell_angle_beta    92.6172612856
_cell_angle_gamma    75.0218250445
_symmetry_space_group_name_H-M    'P 1'
loop_
_atom_site_label
_atom_site_type_symbol
_atom_site_fract_x
_atom_site_fract_y
_atom_site_fract_z
_atom_site_occupancy
C1   C   0.526440984874675   0.880279449959737   0.391081877905691   1.0
C2   C   0.451796461872860   0.907992332426844   0.706721384061495   1.0
C3   C   0.260936612514634   0.627921372898996   0.507980506449258   1.0
H4   H   0.598107335516652   0.061822672716318   0.413605280797363   1.0
H5   H   0.325208481782312   0.910482367056588   0.799248832806036   1.0
H6   H   0.211300559601156   0.602661707760511   0.373055836352783   1.0
H7   H   0.119739228879354   0.658473903427492   0.591284243774481   1.0
H8   H   0.590888172979412   0.718925907488760   0.723522760970319   1.0
H9   H   0.220844672132756   0.062755970278801   0.501808777409330   1.0
H10   H   0.394322024557134   0.444506160835793   0.550012108638754   1.0
H11   H   0.655516143251752   0.679372707237604   0.407081542073897   1.0
H12   H   0.509717224290398   0.101793077072564   0.719188146432273   1.0
H13   H   0.444975599283744   0.891535064517683   0.262528434913008   1.0
N17   N   0.354306400477853   0.887122277117641   0.525163092822346   1.0
