data_1
_audit_creation_method   'Generated by vasp2cif'
_cell_length_a    5.95632577541
_cell_length_b    5.92775807283
_cell_length_c    5.95961506094
_cell_angle_alpha    92.7556101702
_cell_angle_beta    85.7737661259
_cell_angle_gamma    90.8881234149
_symmetry_space_group_name_H-M    'P 1'
loop_
_atom_site_label
_atom_site_type_symbol
_atom_site_fract_x
_atom_site_fract_y
_atom_site_fract_z
_atom_site_occupancy
H4   H   0.484074498477618   0.899476126100780   0.307723694497334   1.0
H5   H   0.729401909519517   0.686329526872633   0.638262650873102   1.0
H6   H   0.417821346004082   0.907978233040119   0.587552348885453   1.0
H7   H   0.501781900208208   0.291141105495129   0.411258107545990   1.0
H8   H   0.133352103544269   0.629882480161257   0.516206795182015   1.0
H9   H   0.269239521956017   0.573834559060060   0.241329908874910   1.0
H10   H   0.759658339992789   0.619366064852230   0.340868773179011   1.0
H11   H   0.421559099559630   0.405005616939249   0.687815822707954   1.0
C12   C   0.292819866068960   0.601977931379416   0.419748211168603   1.0
C13   C   0.643506384302448   0.635271495933097   0.489914023004943   1.0
C14   C   0.464299924890952   0.444755252178702   0.513098371457666   1.0
N16   N   0.457695831643498   0.803894153450592   0.447692459475199   1.0
