data_1
_audit_creation_method   'Generated by vasp2cif'
_cell_length_a    5.91383858315
_cell_length_b    6.01184637924
_cell_length_c    5.93105991952
_cell_angle_alpha    94.8106690364
_cell_angle_beta    92.5133601031
_cell_angle_gamma    97.7520697218
_symmetry_space_group_name_H-M    'P 1'
loop_
_atom_site_label
_atom_site_type_symbol
_atom_site_fract_x
_atom_site_fract_y
_atom_site_fract_z
_atom_site_occupancy
H4   H   0.406587074417757   0.534688162789031   0.183030167309866   1.0
H5   H   0.832802003929508   0.564161449676178   0.449742331625757   1.0
H6   H   0.558053192048668   0.773714515043814   0.302183841351699   1.0
H7   H   0.480631662411298   0.362741134742478   0.756575356587618   1.0
H8   H   0.298486961684517   0.771556012595894   0.592231902596723   1.0
H9   H   0.188264286615372   0.484014848031883   0.496979471999183   1.0
H10   H   0.638223271137775   0.310404209722606   0.377736100186752   1.0
H11   H   0.625057523547902   0.643234770401222   0.799576620537863   1.0
C12   C   0.340819095547225   0.605530065453792   0.539069990919799   1.0
C13   C   0.658256857599049   0.482445523339138   0.454876386423834   1.0
C14   C   0.532207373546292   0.515687026984295   0.675677478497185   1.0
N16   N   0.489886965383157   0.612580635452225   0.330803264776378   1.0
