data_1
_audit_creation_method   'Generated by vasp2cif'
_cell_length_a    5.92754523064
_cell_length_b    5.93558852597
_cell_length_c    5.94079317999
_cell_angle_alpha    85.5680456254
_cell_angle_beta    82.0168175153
_cell_angle_gamma    94.8322259443
_symmetry_space_group_name_H-M    'P 1'
loop_
_atom_site_label
_atom_site_type_symbol
_atom_site_fract_x
_atom_site_fract_y
_atom_site_fract_z
_atom_site_occupancy
H4   H   0.361009596328806   0.812954565620181   0.717072097700523   1.0
H5   H   0.394579344250239   0.656102663951629   0.268789249106234   1.0
H6   H   0.577000859713579   0.893410894587568   0.503127919125042   1.0
H7   H   0.466272219925848   0.248280352289797   0.580579808495763   1.0
H8   H   0.799414522462065   0.636901605841359   0.668544415935884   1.0
H9   H   0.552633099454901   0.520275631105541   0.863507569757473   1.0
H10   H   0.196997462198723   0.537052564833225   0.512397156688813   1.0
H11   H   0.681593645928750   0.398149695015704   0.370843406318052   1.0
C12   C   0.620285140607415   0.573773701443436   0.686162551989995   1.0
C13   C   0.375908828740883   0.585465509653432   0.444792052745413   1.0
C14   C   0.545459519879621   0.415244744386790   0.509483086128490   1.0
N16   N   0.477663738280008   0.757318217511866   0.594922115346897   1.0
