data_1
_audit_creation_method   'Generated by vasp2cif'
_cell_length_a    7.94142216162
_cell_length_b    5.96329891828
_cell_length_c    4.68942846851
_cell_angle_alpha    100.822324851
_cell_angle_beta    79.0672029264
_cell_angle_gamma    89.7899767321
_symmetry_space_group_name_H-M    'P 1'
loop_
_atom_site_label
_atom_site_type_symbol
_atom_site_fract_x
_atom_site_fract_y
_atom_site_fract_z
_atom_site_occupancy
H4   H   0.632892990056362   0.991333410471704   0.943361938516823   1.0
H5   H   0.315389883279323   0.281214705855227   0.029292786982261   1.0
H6   H   0.330239479735560   0.992016997254268   0.979406803923673   1.0
H7   H   0.434660116169603   0.962689763079268   0.466057848622654   1.0
H8   H   0.345794838138509   0.249678857945412   0.524745598871100   1.0
H9   H   0.621134349165878   0.407618284237742   0.641569556410879   1.0
H10   H   0.723798127310673   0.135473464133398   0.469822845636081   1.0
H11   H   0.601902131903977   0.288020434002298   0.117755572702009   1.0
C12   C   0.434521716815148   0.137302294988750   0.588179309322122   1.0
C13   C   0.580403767338730   0.158065827337865   0.934689757981687   1.0
C14   C   0.614540050410874   0.223274462356422   0.627043494661947   1.0
N16   N   0.388206393851931   0.135786452613338   0.920555384958504   1.0
