data_1
_audit_creation_method   'Generated by vasp2cif'
_cell_length_a    8.00846463244
_cell_length_b    5.808830272
_cell_length_c    4.66770471645
_cell_angle_alpha    93.0883214695
_cell_angle_beta    84.3117190062
_cell_angle_gamma    86.3888874931
_symmetry_space_group_name_H-M    'P 1'
loop_
_atom_site_label
_atom_site_type_symbol
_atom_site_fract_x
_atom_site_fract_y
_atom_site_fract_z
_atom_site_occupancy
H4   H   0.404192782107017   0.982328672523465   0.946788530157505   1.0
H5   H   0.603156824385167   0.376888657527935   0.032582829119114   1.0
H6   H   0.671380856417954   0.097926325119658   0.045386322949923   1.0
H7   H   0.648383656123912   0.151649346958393   0.544645845212024   1.0
H8   H   0.512538956425111   0.408498978657285   0.530076107019937   1.0
H9   H   0.268989299755191   0.156703898477431   0.543908416230899   1.0
H10   H   0.408916397837231   0.906158405985003   0.458608204184863   1.0
H11   H   0.316067398875966   0.272597290792170   0.037283288126339   1.0
C12   C   0.541468732096966   0.229339389082000   0.449312590919447   1.0
C13   C   0.399638904305938   0.132413883826388   0.096476509268719   1.0
C14   C   0.385291246453825   0.088311388337743   0.420177741458389   1.0
N16   N   0.576485018560930   0.221381963322599   0.119223642168144   1.0
