data_1
_audit_creation_method   'Generated by vasp2cif'
_cell_length_a    5.88630335613
_cell_length_b    4.21606674625
_cell_length_c    8.35981924536
_cell_angle_alpha    85.2436840613
_cell_angle_beta    89.7840255166
_cell_angle_gamma    98.0735637878
_symmetry_space_group_name_H-M    'P 1'
loop_
_atom_site_label
_atom_site_type_symbol
_atom_site_fract_x
_atom_site_fract_y
_atom_site_fract_z
_atom_site_occupancy
H4   H   0.018812852384787   0.156509732775461   0.513389042976655   1.0
H5   H   0.316902000328771   0.288043270259435   0.318110173156100   1.0
H6   H   0.382750619070695   0.651065219709273   0.377178391457157   1.0
H7   H   0.589539216242044   0.084821596075036   0.484059960578074   1.0
H8   H   0.657105752984204   0.469906694996098   0.558296468918165   1.0
H9   H   0.369029502788539   0.327405895217393   0.774031542240040   1.0
H10   H   0.292362384677334   0.940822391172716   0.707549175174493   1.0
H11   H   0.090648999608420   0.543926696161775   0.585756911325229   1.0
C12   C   0.519566461505587   0.280766786330293   0.535087135303157   1.0
C13   C   0.156686221496118   0.329550044854410   0.553326464124789   1.0
C14   C   0.332716759205332   0.195218119852925   0.668316373727006   1.0
N16   N   0.343737656427987   0.413768124744838   0.419490790856253   1.0
