data_1
_audit_creation_method   'Generated by vasp2cif'
_cell_length_a    6.14048390566
_cell_length_b    4.26051085776
_cell_length_c    8.66074285637
_cell_angle_alpha    106.983579781
_cell_angle_beta    95.5378040035
_cell_angle_gamma    71.9418842988
_symmetry_space_group_name_H-M    'P 1'
loop_
_atom_site_label
_atom_site_type_symbol
_atom_site_fract_x
_atom_site_fract_y
_atom_site_fract_z
_atom_site_occupancy
H4   H   0.787445430148921   0.933277636656499   0.447375218033578   1.0
H5   H   0.540322248006134   0.353852714942718   0.660704900431284   1.0
H6   H   0.679066623373551   0.633821743587184   0.666546434122452   1.0
H7   H   0.305124137999293   0.501861218665738   0.440462406943745   1.0
H8   H   0.413298252292719   0.859978443946382   0.482401841871926   1.0
H9   H   0.733701870479948   0.502488657900045   0.283166946295346   1.0
H10   H   0.591389925337793   0.182956414981334   0.225247171093621   1.0
H11   H   0.956427096543941   0.220258815060383   0.487962334497347   1.0
C12   C   0.459189201097466   0.581723398028984   0.454760242355704   1.0
C13   C   0.786124305368737   0.194137624445794   0.458474891989035   1.0
C14   C   0.647565316349869   0.358577030339312   0.328074858742504   1.0
N16   N   0.612631621867664   0.450423517806300   0.588889818520350   1.0
