data_1
_audit_creation_method   'Generated by vasp2cif'
_cell_length_a    6.05103844454
_cell_length_b    4.29250686487
_cell_length_c    8.51242558923
_cell_angle_alpha    103.440877321
_cell_angle_beta    86.760557641
_cell_angle_gamma    105.631412878
_symmetry_space_group_name_H-M    'P 1'
loop_
_atom_site_label
_atom_site_type_symbol
_atom_site_fract_x
_atom_site_fract_y
_atom_site_fract_z
_atom_site_occupancy
Cl1   Cl   0.820150610886980   0.777473077670466   0.819122556848331   1.0
Cl2   Cl   0.490292339189018   0.282419183793142   0.114630477882213   1.0
Cl3   Cl   0.949298810829151   0.041231485089376   0.284313117616794   1.0
H4   H   0.231361307793318   0.522699175019786   0.553431463458243   1.0
H5   H   0.479288637012002   0.712502779612652   0.343347824626426   1.0
H6   H   0.337276271681019   0.989571577853608   0.337944314913390   1.0
H7   H   0.704913250655677   0.070273851275795   0.570363722401885   1.0
H8   H   0.599023180597828   0.389368735349484   0.526999495570483   1.0
H9   H   0.267003156506588   0.253290130807359   0.716754671855984   1.0
H10   H   0.409942720668846   0.994303916711446   0.780576342379275   1.0
H11   H   0.055451842932408   0.764019065153329   0.510254984453978   1.0
C12   C   0.551460608060695   0.143702055121097   0.552914862327526   1.0
C13   C   0.226973878646700   0.767691954098498   0.542593796162336   1.0
C14   C   0.357629662558154   0.061448557358829   0.675562176902811   1.0
N16   N   0.403437313326090   0.884016719266277   0.415434816146984   1.0
