data_1
_audit_creation_method   'Generated by vasp2cif'
_cell_length_a    8.41953738626
_cell_length_b    4.28888178719
_cell_length_c    6.15539741218
_cell_angle_alpha    71.3078332204
_cell_angle_beta    93.2803834102
_cell_angle_gamma    101.328875785
_symmetry_space_group_name_H-M    'P 1'
loop_
_atom_site_label
_atom_site_type_symbol
_atom_site_fract_x
_atom_site_fract_y
_atom_site_fract_z
_atom_site_occupancy
Cl1   Cl   0.803418979850967   0.791648567524497   0.188756515797998   1.0
Cl2   Cl   0.098460228340933   0.283174542505932   0.516124056535922   1.0
Cl3   Cl   0.271587871723675   0.026700519331015   0.055008248125276   1.0
H4   H   0.542868147199627   0.493960721199457   0.775676022625682   1.0
H5   H   0.329935630411825   0.708692622658624   0.527320205053741   1.0
H6   H   0.321401744535478   0.975146455267172   0.668176853577087   1.0
H7   H   0.552432260979785   0.078445114773643   0.297684215608840   1.0
H8   H   0.507111726587013   0.388064545985699   0.406883891234749   1.0
H9   H   0.703491439114217   0.219151606729390   0.732627496864907   1.0
H10   H   0.766190766225250   0.967591858091971   0.588454348267824   1.0
H11   H   0.498729943248925   0.728896981760485   0.948515154874393   1.0
C12   C   0.535742454514441   0.138674192533671   0.452241332801208   1.0
C13   C   0.530254378282265   0.739956760775463   0.777518339627385   1.0
C14   C   0.661214927518678   0.036607049567536   0.643248125246004   1.0
N16   N   0.400530948897675   0.871785522354713   0.602397975327769   1.0
