data_1
_audit_creation_method   'Generated by vasp2cif'
_cell_length_a    5.99913778785
_cell_length_b    4.26012222822
_cell_length_c    8.59230999723
_cell_angle_alpha    76.4163201065
_cell_angle_beta    93.2911159634
_cell_angle_gamma    103.739646582
_symmetry_space_group_name_H-M    'P 1'
loop_
_atom_site_label
_atom_site_type_symbol
_atom_site_fract_x
_atom_site_fract_y
_atom_site_fract_z
_atom_site_occupancy
H4   H   0.236967832189935   0.903299676020524   0.531954791783996   1.0
H5   H   0.484456868705048   0.282626837968225   0.323066153814355   1.0
H6   H   0.348371497719795   0.576613082266956   0.325050902436466   1.0
H7   H   0.716660149537139   0.398095010110535   0.548993709401650   1.0
H8   H   0.620024083793620   0.771929135726018   0.512872930703830   1.0
H9   H   0.287869846676177   0.477586966756564   0.702120404053387   1.0
H10   H   0.423965172352648   0.141466177573204   0.759725785010796   1.0
H11   H   0.066801512506749   0.201978147864633   0.495585786027425   1.0
C12   C   0.566585397690291   0.503192973230622   0.535242579686821   1.0
C13   C   0.237262374586890   0.160978476946247   0.524913890300685   1.0
C14   C   0.373116784764327   0.316132512251613   0.657874768805359   1.0
N16   N   0.413730734985530   0.389997340265693   0.398448731024084   1.0
