data_1
_audit_creation_method   'Generated by vasp2cif'
_cell_length_a    7.76562385707
_cell_length_b    6.1656218682
_cell_length_c    4.69973551268
_cell_angle_alpha    83.4455415003
_cell_angle_beta    83.9536740814
_cell_angle_gamma    82.8868767946
_symmetry_space_group_name_H-M    'P 1'
loop_
_atom_site_label
_atom_site_type_symbol
_atom_site_fract_x
_atom_site_fract_y
_atom_site_fract_z
_atom_site_occupancy
H4   H   0.438144203302961   0.857388903657373   0.935654439948173   1.0
H5   H   0.411233647285606   0.336286133987926   0.962307185252548   1.0
H6   H   0.599073148121413   0.161058430809064   0.944756192371756   1.0
H7   H   0.568208980913461   0.059633951608639   0.440836351954950   1.0
H8   H   0.403572925273131   0.290711176946424   0.460666355048268   1.0
H9   H   0.175032516422668   0.061213493665591   0.397255970187345   1.0
H10   H   0.327576885082720   0.821534462977610   0.452873093474501   1.0
H11   H   0.251533323616783   0.058403163428551   0.875368271442603   1.0
C12   C   0.446368048675780   0.139379908935339   0.362955597166575   1.0
C13   C   0.356230104431368   0.999838906689057   0.010474164435308   1.0
C14   C   0.306745149688936   0.985055722901492   0.338998436493831   1.0
N16   N   0.470792060263058   0.183838766423001   0.034219747320407   1.0
