data_1
_audit_creation_method   'Generated by vasp2cif'
_cell_length_a    7.83221774321
_cell_length_b    5.98767206426
_cell_length_c    4.81971313717
_cell_angle_alpha    85.2241312538
_cell_angle_beta    85.9676200618
_cell_angle_gamma    79.0439938644
_symmetry_space_group_name_H-M    'P 1'
loop_
_atom_site_label
_atom_site_type_symbol
_atom_site_fract_x
_atom_site_fract_y
_atom_site_fract_z
_atom_site_occupancy
Cl1   Cl   0.912539336692042   0.207055395995588   0.705409503894496   1.0
Cl2   Cl   0.145205856342844   0.680772569282819   0.416815340529027   1.0
Cl3   Cl   0.630041191420218   0.769013734927249   0.678247639557199   1.0
H4   H   0.316164203415885   0.096876624864552   0.729351334921969   1.0
H5   H   0.506153812813868   0.458186484491614   0.797794878753867   1.0
H6   H   0.599096738952286   0.182367784197852   0.778774595066704   1.0
H7   H   0.624170059602563   0.152834574564548   0.259387470937531   1.0
H8   H   0.464123614595891   0.413000773760869   0.285444205822932   1.0
H9   H   0.235766958906958   0.166522595290599   0.332617249569868   1.0
H10   H   0.389201699785600   0.935525370866108   0.203836361021033   1.0
H11   H   0.220653913926970   0.368688281403410   0.855265848705417   1.0
C12   C   0.499576419699723   0.249173766654019   0.192947227720239   1.0
C13   C   0.320639016608690   0.217186790496283   0.883226143514933   1.0
C14   C   0.346321550738671   0.119688393692717   0.186656557318686   1.0
N16   N   0.499176001681882   0.293115750616077   0.873757716314884   1.0
