data_1
_audit_creation_method   'Generated by vasp2cif'
_cell_length_a    5.72470469315
_cell_length_b    6.6311179303
_cell_length_c    5.76970073978
_cell_angle_alpha    90.7090234482
_cell_angle_beta    78.8116028357
_cell_angle_gamma    90.2858114435
_symmetry_space_group_name_H-M    'P 1'
loop_
_atom_site_label
_atom_site_type_symbol
_atom_site_fract_x
_atom_site_fract_y
_atom_site_fract_z
_atom_site_occupancy
H4   H   0.573202718621346   0.057500372763954   0.802194726751544   1.0
H5   H   0.317469087535883   0.892089921968363   0.534800786982615   1.0
H6   H   0.255263463756776   0.525098698726090   0.481423066135882   1.0
H7   H   0.558090825265467   0.440521713159342   0.791736367636851   1.0
H8   H   0.127471874516665   0.179370640486425   0.346468115926520   1.0
C9   C   0.463319544072412   0.343010927161821   0.692469091798863   1.0
C10   C   0.340737718865313   0.050319427686098   0.563363776730974   1.0
C11   C   0.314314111216760   0.384805338606043   0.540709502543329   1.0
N13   N   0.476331641083313   0.135145691252546   0.702824077985824   1.0
N14   N   0.240411759465410   0.200160652489949   0.462775751606102   1.0
