data_1
_audit_creation_method   'Generated by vasp2cif'
_cell_length_a    5.92961939994
_cell_length_b    6.18620810445
_cell_length_c    5.85205783722
_cell_angle_alpha    98.105756227
_cell_angle_beta    80.5353619295
_cell_angle_gamma    82.6185779186
_symmetry_space_group_name_H-M    'P 1'
loop_
_atom_site_label
_atom_site_type_symbol
_atom_site_fract_x
_atom_site_fract_y
_atom_site_fract_z
_atom_site_occupancy
Cl1   Cl   0.719359068501291   0.753871242589398   0.921833375172476   1.0
Cl2   Cl   0.137059277683534   0.801360833840228   0.334116932085927   1.0
Cl3   Cl   0.130066850972767   0.193300739982114   0.906536988166081   1.0
H4   H   0.387736399680591   0.053750640543136   0.319387167071795   1.0
H5   H   0.635763746068505   0.993349920681680   0.630299866876001   1.0
H6   H   0.790543122724685   0.572126139424626   0.366685834187805   1.0
H7   H   0.462988056112458   0.396172747400222   0.135752495830580   1.0
H8   H   0.869647433906231   0.306102303924824   0.657140650454011   1.0
C9   C   0.546804475584466   0.343634798782759   0.271964262950434   1.0
C10   C   0.630842678701981   0.125294178506735   0.528555649262564   1.0
C11   C   0.706173443180127   0.430332478914529   0.386349321613494   1.0
N13   N   0.502026008979435   0.155576063213765   0.364514301701576   1.0
N14   N   0.755346256877374   0.291291401720073   0.544921965896108   1.0
