data_1
_audit_creation_method   'Generated by vasp2cif'
_cell_length_a    6.17002744618
_cell_length_b    5.9133657973
_cell_length_c    5.96420241545
_cell_angle_alpha    78.3794424084
_cell_angle_beta    85.5062719175
_cell_angle_gamma    96.5673404251
_symmetry_space_group_name_H-M    'P 1'
loop_
_atom_site_label
_atom_site_type_symbol
_atom_site_fract_x
_atom_site_fract_y
_atom_site_fract_z
_atom_site_occupancy
H4   H   0.630535421524236   0.339350132660598   0.846881696728694   1.0
H5   H   0.672652445102592   0.038171431247207   0.597335525061411   1.0
H6   H   0.071475893168717   0.301004467341329   0.479660099647539   1.0
H7   H   0.276846273473851   0.520774396504848   0.794294753605847   1.0
H8   H   0.335065171721162   0.018657766484985   0.382501551747346   1.0
C9   C   0.323625662276086   0.388960670921144   0.707033359278199   1.0
C10   C   0.539801176967387   0.139980400751469   0.608210703196292   1.0
C11   C   0.222353327975881   0.279551516699897   0.554745716845645   1.0
N13   N   0.519893291882561   0.298972721242379   0.736929105280602   1.0
N14   N   0.360565149607943   0.126019245420473   0.495427978563576   1.0
