data_1
_audit_creation_method   'Generated by vasp2cif'
_cell_length_a    5.99294557907
_cell_length_b    5.91137954045
_cell_length_c    6.11688134312
_cell_angle_alpha    97.1125314221
_cell_angle_beta    95.7040046237
_cell_angle_gamma    100.208605239
_symmetry_space_group_name_H-M    'P 1'
loop_
_atom_site_label
_atom_site_type_symbol
_atom_site_fract_x
_atom_site_fract_y
_atom_site_fract_z
_atom_site_occupancy
Cl1   Cl   0.943752193858238   0.873395568718038   0.419817403403798   1.0
Cl2   Cl   0.507418143135673   0.835675484308339   0.946803429893045   1.0
Cl3   Cl   0.928548274359564   0.433355250949198   0.900080686705188   1.0
H4   H   0.187077354872144   0.447641913039867   0.657915280886641   1.0
H5   H   0.420969924379847   0.136901783612203   0.729327711228485   1.0
H6   H   0.598435113354796   0.384826533153998   0.136500559672854   1.0
H7   H   0.276963621004384   0.622980877082306   0.306165990093881   1.0
H8   H   0.663386327853289   0.102512456825444   0.413384548794184   1.0
C9   C   0.353722301479102   0.487042187030184   0.363677119172465   1.0
C10   C   0.423653455366818   0.235878177919886   0.593050529690352   1.0
C11   C   0.510237068578668   0.369141471734622   0.280061119538800   1.0
N13   N   0.302663397901824   0.400420611077479   0.557257783901242   1.0
N14   N   0.550814024111659   0.213845621933999   0.425884730454257   1.0
