data_1
_audit_creation_method   'Generated by vasp2cif'
_cell_length_a    9.83377447811
_cell_length_b    4.02572538266
_cell_length_c    5.72472099126
_cell_angle_alpha    79.2212071202
_cell_angle_beta    87.5355310836
_cell_angle_gamma    67.8118821313
_symmetry_space_group_name_H-M    'P 1'
loop_
_atom_site_label
_atom_site_type_symbol
_atom_site_fract_x
_atom_site_fract_y
_atom_site_fract_z
_atom_site_occupancy
H4   H   0.727892561090328   0.742132911087468   0.577580236238317   1.0
H5   H   0.363277571126311   0.816965523908606   0.218148548717051   1.0
H6   H   0.260978934234427   0.203620167156546   0.541080098939348   1.0
H7   H   0.508113623278074   0.143982432735095   0.792099678606506   1.0
H8   H   0.643882700065482   0.535219348609691   0.234619226114894   1.0
C9   C   0.376277460622377   0.058341363583680   0.518830796513352   1.0
C10   C   0.497554929407979   0.028461812284239   0.642201434244001   1.0
C11   C   0.574815052677861   0.709869976640844   0.349604611994881   1.0
N13   N   0.427261076232458   0.858232366536250   0.338249851894196   1.0
N14   N   0.619402028800075   0.811971001780502   0.532886752834951   1.0
