data_1
_audit_creation_method   'Generated by vasp2cif'
_cell_length_a    6.07588807048
_cell_length_b    6.05378683258
_cell_length_c    6.31743422954
_cell_angle_alpha    80.931929929
_cell_angle_beta    89.4952579353
_cell_angle_gamma    95.3252294052
_symmetry_space_group_name_H-M    'P 1'
loop_
_atom_site_label
_atom_site_type_symbol
_atom_site_fract_x
_atom_site_fract_y
_atom_site_fract_z
_atom_site_occupancy
C1   C   0.464118797757512   0.579048394271201   0.333640144171714   1.0
C2   C   0.558570722257649   0.415456678656772   0.205503774806337   1.0
H3   H   0.736629374984036   0.455406708041973   0.175109840004295   1.0
H4   H   0.476667975639885   0.425207513653513   0.051773791246924   1.0
H5   H   0.566627423485460   0.414682868728166   0.633885363287622   1.0
H6   H   0.523623705771536   0.684992281832529   0.636120611599389   1.0
H7   H   0.528949929076332   0.242297414656963   0.288908449648401   1.0
H8   H   0.487863136924508   0.752521981396506   0.251579616617053   1.0
H9   H   0.288924656451099   0.535362839328506   0.374371062914613   1.0
H10   H   0.750171849119036   0.622933045279927   0.517513348795763   1.0
N14   N   0.583458735006177   0.574679858979189   0.544923592041390   1.0
