data_1
_audit_creation_method   'Generated by vasp2cif'
_cell_length_a    6.25161350132
_cell_length_b    5.9758202101
_cell_length_c    6.25037946003
_cell_angle_alpha    85.3010762846
_cell_angle_beta    79.4387852533
_cell_angle_gamma    86.3990393521
_symmetry_space_group_name_H-M    'P 1'
loop_
_atom_site_label
_atom_site_type_symbol
_atom_site_fract_x
_atom_site_fract_y
_atom_site_fract_z
_atom_site_occupancy
C1   C   0.569954069365338   0.778463326678924   0.306448373394154   1.0
C2   C   0.538907028024013   0.591790368046979   0.165343163805822   1.0
H3   H   0.695075431924749   0.529113827666883   0.076080569654451   1.0
H4   H   0.437835163295695   0.657481000757748   0.046925535910802   1.0
H5   H   0.640717277213334   0.551450353388738   0.569384029686340   1.0
H6   H   0.718908185999524   0.813431971567766   0.579994684280344   1.0
H7   H   0.456429320364158   0.451063201687305   0.262837704449367   1.0
H8   H   0.655591074168875   0.918599083093106   0.213063965765500   1.0
H9   H   0.415888029819470   0.842502199212959   0.397599825338283   1.0
H10   H   0.863073697864408   0.640282495375814   0.404699240980911   1.0
N14   N   0.707520908758362   0.690076839668855   0.476265675194711   1.0
