data_1
_audit_creation_method   'Generated by vasp2cif'
_cell_length_a    6.087954783
_cell_length_b    4.2858837504
_cell_length_c    8.8819639509
_cell_angle_alpha    97.4113608287
_cell_angle_beta    91.3748336809
_cell_angle_gamma    97.1976709501
_symmetry_space_group_name_H-M    'P 1'
loop_
_atom_site_label
_atom_site_type_symbol
_atom_site_fract_x
_atom_site_fract_y
_atom_site_fract_z
_atom_site_occupancy
C1   C   0.570708273264782   0.732461155590234   0.417815996808338   1.0
C2   C   0.567123439077754   0.550436719670293   0.553991142760460   1.0
H3   H   0.719729025259235   0.442801004433076   0.565003370776222   1.0
H4   H   0.554708805806469   0.714251479287400   0.657168330736207   1.0
H5   H   0.733461772626022   0.405525523700084   0.271727674855863   1.0
H6   H   0.588604143285226   0.631822548908502   0.177305625428633   1.0
H7   H   0.417582822595756   0.837064009924974   0.404731788703596   1.0
H8   H   0.424257311663976   0.366294005146047   0.546033338536511   1.0
H9   H   0.713508278790189   0.915724412142625   0.424488925220908   1.0
H10   H   0.452929879457346   0.338249626188496   0.255494072770648   1.0
N14   N   0.589280980255577   0.511656366281220   0.271844284008772   1.0
