data_1
_audit_creation_method   'Generated by vasp2cif'
_cell_length_a    6.26124350216
_cell_length_b    4.43051107165
_cell_length_c    8.39394711738
_cell_angle_alpha    94.6595664539
_cell_angle_beta    97.8501862125
_cell_angle_gamma    95.1681533277
_symmetry_space_group_name_H-M    'P 1'
loop_
_atom_site_label
_atom_site_type_symbol
_atom_site_fract_x
_atom_site_fract_y
_atom_site_fract_z
_atom_site_occupancy
C1   C   0.409913361245380   0.827016402718179   0.609373772949546   1.0
C2   C   0.565796060119183   0.615691291761422   0.548265922038510   1.0
H3   H   0.480643350426441   0.434221260946010   0.460074899110076   1.0
H4   H   0.681144852562618   0.747790728220352   0.488064644579111   1.0
H5   H   0.162471375263976   0.477303324394448   0.629011739220971   1.0
H6   H   0.143414720073224   0.799889904515332   0.742095180161492   1.0
H7   H   0.495394725703043   0.012941207391791   0.693996161474814   1.0
H8   H   0.657125491414902   0.515539360823574   0.647893698153155   1.0
H9   H   0.311817980175107   0.919235182358868   0.510782688599257   1.0
H10   H   0.332890212181297   0.578992045676827   0.804331828596979   1.0
N14   N   0.251961454332630   0.657454845967116   0.701758000280179   1.0
