data_1
_audit_creation_method   'Generated by vasp2cif'
_cell_length_a    6.14862857252
_cell_length_b    4.38647856059
_cell_length_c    9.49286488628
_cell_angle_alpha    64.3091198683
_cell_angle_beta    97.494459484
_cell_angle_gamma    100.253733968
_symmetry_space_group_name_H-M    'P 1'
loop_
_atom_site_label
_atom_site_type_symbol
_atom_site_fract_x
_atom_site_fract_y
_atom_site_fract_z
_atom_site_occupancy
C1   C   0.330768229383624   0.498978168614733   0.590343346128604   1.0
C2   C   0.518119210742641   0.401612048263471   0.534332479242576   1.0
H3   H   0.469552721191510   0.403445633727877   0.419133400184438   1.0
H4   H   0.669095068931894   0.582247928964276   0.524119773800319   1.0
H5   H   0.394754219474950   0.221107465916178   0.837445226443188   1.0
H6   H   0.266818648539692   0.561048029935465   0.790393448503511   1.0
H7   H   0.301829586044312   0.762032078518026   0.516802249197898   1.0
H8   H   0.558250204656904   0.147564764002024   0.614907605691212   1.0
H9   H   0.175198963321384   0.331783777135601   0.594562866690184   1.0
H10   H   0.540685842481856   0.603725856768276   0.766887835018251   1.0
N14   N   0.386496613144301   0.471648822249615   0.756091056773950   1.0
