data_1
_audit_creation_method   'Generated by vasp2cif'
_cell_length_a    6.79770509039
_cell_length_b    4.64201715545
_cell_length_c    7.76495935137
_cell_angle_alpha    109.269743395
_cell_angle_beta    89.4049828916
_cell_angle_gamma    85.9246517133
_symmetry_space_group_name_H-M    'P 1'
loop_
_atom_site_label
_atom_site_type_symbol
_atom_site_fract_x
_atom_site_fract_y
_atom_site_fract_z
_atom_site_occupancy
C1   C   0.581987721890281   0.476195998308391   0.489407250949197   1.0
C2   C   0.668584755050037   0.784048282143877   0.565716008136896   1.0
H3   H   0.798196394266882   0.756442555567267   0.642072924742511   1.0
H4   H   0.718921205990445   0.862939367000152   0.456268790171170   1.0
H5   H   0.459714481266879   0.546731373938040   0.252616118406230   1.0
H6   H   0.304416198679467   0.662224516533043   0.434401949508024   1.0
H7   H   0.690697294076292   0.300274617657457   0.405893452100639   1.0
H8   H   0.563737328793567   0.956195570464599   0.658374166022087   1.0
H9   H   0.521097269796833   0.402853597682590   0.597038086681699   1.0
H10   H   0.347812672427518   0.290339815163195   0.317550615471792   1.0
N14   N   0.412937554715463   0.493987486639006   0.365595487196501   1.0
