data_1
_audit_creation_method   'Generated by vasp2cif'
_cell_length_a    5.813563534
_cell_length_b    4.20789395918
_cell_length_c    9.40402285939
_cell_angle_alpha    92.9393405246
_cell_angle_beta    84.2074095872
_cell_angle_gamma    96.0025129134
_symmetry_space_group_name_H-M    'P 1'
loop_
_atom_site_label
_atom_site_type_symbol
_atom_site_fract_x
_atom_site_fract_y
_atom_site_fract_z
_atom_site_occupancy
C1   C   0.461809795733633   0.080944364669119   0.469256712036157   1.0
C2   C   0.655432377239483   0.110961458626592   0.568299967927399   1.0
H3   H   0.762302186290315   0.910267421067932   0.550752859845562   1.0
H4   H   0.769030314494785   0.333114079466349   0.552886317152229   1.0
H5   H   0.435053100600857   0.047978419146362   0.244146023666752   1.0
H6   H   0.674614810817484   0.904119982437901   0.290218766790882   1.0
H7   H   0.348139153583258   0.859111463111839   0.481386142318615   1.0
H8   H   0.579701247923866   0.112198364079930   0.679406748419574   1.0
H9   H   0.353119862975982   0.279122655859158   0.485082333302198   1.0
H10   H   0.665286958445599   0.292045989553965   0.289674385671370   1.0
N14   N   0.562912245222820   0.081314513115393   0.313431010548792   1.0
