data_1
_audit_creation_method   'Generated by vasp2cif'
_cell_length_a    6.11301489637
_cell_length_b    4.44943751032
_cell_length_c    8.46798989682
_cell_angle_alpha    90.5952638184
_cell_angle_beta    86.8292048828
_cell_angle_gamma    78.5063558833
_symmetry_space_group_name_H-M    'P 1'
loop_
_atom_site_label
_atom_site_type_symbol
_atom_site_fract_x
_atom_site_fract_y
_atom_site_fract_z
_atom_site_occupancy
C1   C   0.425616123990821   0.546754836582685   0.497893244711432   1.0
C2   C   0.614030392841278   0.710941213238420   0.533512458955975   1.0
H3   H   0.775200930196107   0.551581236305963   0.530363536973938   1.0
H4   H   0.628042602288493   0.887467968612849   0.446975415007307   1.0
H5   H   0.612330119114846   0.280978822534758   0.305834594547020   1.0
H6   H   0.449166195499318   0.595974372005069   0.247259536609625   1.0
H7   H   0.422205841687503   0.352218986839537   0.574833372002150   1.0
H8   H   0.582046378333611   0.818478109128164   0.651265102574333   1.0
H9   H   0.261815914722084   0.699242355582198   0.508033640127498   1.0
H10   H   0.332690767386755   0.301262668807590   0.303033162011213   1.0
N14   N   0.456315395255117   0.421443968589785   0.328295409130955   1.0
