data_1
_audit_creation_method   'Generated by vasp2cif'
_cell_length_a    8.81226581094
_cell_length_b    4.27142725074
_cell_length_c    5.8242499262
_cell_angle_alpha    89.0216757224
_cell_angle_beta    89.99196726
_cell_angle_gamma    91.0918249818
_symmetry_space_group_name_H-M    'P 1'
loop_
_atom_site_label
_atom_site_type_symbol
_atom_site_fract_x
_atom_site_fract_y
_atom_site_fract_z
_atom_site_occupancy
C1   C   0.376810038714054   0.763738967197004   0.413150839172637   1.0
C2   C   0.505867795640075   0.532496539896987   0.417021923062473   1.0
H3   H   0.504927920880372   0.387668116766384   0.263910483465679   1.0
H4   H   0.613217016084750   0.664530918447755   0.419116173772858   1.0
H5   H   0.210859260228440   0.458046534054151   0.265058185081778   1.0
H6   H   0.134288065495191   0.752031334046772   0.406711066779875   1.0
H7   H   0.376598707599728   0.906169652658025   0.566480468768265   1.0
H8   H   0.501649771953961   0.382512484345634   0.571000987999402   1.0
H9   H   0.380263603024424   0.912573606098298   0.259470257699072   1.0
H10   H   0.207498692109458   0.452329685321970   0.553843417111060   1.0
N14   N   0.222402976970508   0.595436110093152   0.409400925919678   1.0
