data_1
_audit_creation_method   'Generated by vasp2cif'
_cell_length_a    11.0178161249
_cell_length_b    4.68943131116
_cell_length_c    4.48637599107
_cell_angle_alpha    90.0948795133
_cell_angle_beta    90.0037093538
_cell_angle_gamma    84.6590415265
_symmetry_space_group_name_H-M    'P 1'
loop_
_atom_site_label
_atom_site_type_symbol
_atom_site_fract_x
_atom_site_fract_y
_atom_site_fract_z
_atom_site_occupancy
C1   C   0.596594148070075   0.713108728831259   0.548067566148113   1.0
C2   C   0.514808884721063   0.470521774760627   0.519475187592576   1.0
H3   H   0.526206526317289   0.324406670079341   0.709073557236707   1.0
H4   H   0.419699789990240   0.559671885875922   0.514389835174740   1.0
H5   H   0.748737752406363   0.458045143893877   0.731454532354043   1.0
H6   H   0.785181853272562   0.764053238109554   0.579314731772477   1.0
H7   H   0.586233129242160   0.860699954750629   0.360440406401615   1.0
H8   H   0.533415104913246   0.349762531944364   0.313113760695543   1.0
H9   H   0.579480209495983   0.834416585108492   0.753801411404098   1.0
H10   H   0.755803253983871   0.485341275682536   0.363539295592112   1.0
N14   N   0.730358462103439   0.599344566958031   0.555267252182716   1.0
