data_1
_audit_creation_method   'Generated by vasp2cif'
_cell_length_a    6.23936337224
_cell_length_b    6.23301475959
_cell_length_c    6.9752964184
_cell_angle_alpha    74.1533814394
_cell_angle_beta    88.627203366
_cell_angle_gamma    86.2539588534
_symmetry_space_group_name_H-M    'P 1'
loop_
_atom_site_label
_atom_site_type_symbol
_atom_site_fract_x
_atom_site_fract_y
_atom_site_fract_z
_atom_site_occupancy
C1   C   0.671069069143051   0.672011196991001   0.395415587588886   1.0
C2   C   0.623467705936818   0.448814784949519   0.359905266106345   1.0
C3   C   0.622570982469419   0.463489463435323   0.137501294636053   1.0
H4   H   0.778222456080307   0.511321740122028   0.068537729127726   1.0
H5   H   0.590126351831323   0.301860438274801   0.116307884828522   1.0
H6   H   0.467114608054352   0.397420901642285   0.426009111163786   1.0
H7   H   0.745272594434176   0.320468489514013   0.434492267698900   1.0
H8   H   0.511143897950120   0.603500495298114   0.674583802532887   1.0
H9   H   0.686774673650206   0.802707287196824   0.648955825198684   1.0
H10   H   0.497766798277503   0.586074530123703   0.059952473436908   1.0
H11   H   0.831858977808238   0.722574960136654   0.345467570464855   1.0
H12   H   0.553489678968987   0.806185716229884   0.324976645451258   1.0
H13   H   0.776528782755747   0.537845498282671   0.692075274759013   1.0
N17   N   0.660170515446985   0.653734043830489   0.617036830531113   1.0
