data_1
_audit_creation_method   'Generated by vasp2cif'
_cell_length_a    6.10876477478
_cell_length_b    6.14611197176
_cell_length_c    7.21826947458
_cell_angle_alpha    104.296145667
_cell_angle_beta    82.2065413643
_cell_angle_gamma    87.9112812347
_symmetry_space_group_name_H-M    'P 1'
loop_
_atom_site_label
_atom_site_type_symbol
_atom_site_fract_x
_atom_site_fract_y
_atom_site_fract_z
_atom_site_occupancy
C1   C   0.406950622451298   0.690973048623192   0.616235636355704   1.0
C2   C   0.318707788703108   0.501534339150396   0.700813078177191   1.0
C3   C   0.410168511021176   0.504334246237427   0.888433206027599   1.0
H4   H   0.344810694657369   0.654300795043468   0.002017297271330   1.0
H5   H   0.365034643105794   0.356286177663918   0.938489261198491   1.0
H6   H   0.369188751448213   0.339898439928440   0.595680953481171   1.0
H7   H   0.136652801431047   0.516603727670116   0.726109058323317   1.0
H8   H   0.367805769806758   0.525874326045937   0.330486069127346   1.0
H9   H   0.383001859301103   0.804399785076029   0.362350154798300   1.0
H10   H   0.591115630199809   0.502392950329472   0.866316484583287   1.0
H11   H   0.353317138736266   0.857960017717325   0.710458442426074   1.0
H12   H   0.587347128534383   0.676568631611474   0.584106716591862   1.0
H13   H   0.151313709231168   0.703781045504400   0.446683373557889   1.0
N17   N   0.322051031974340   0.681008000610376   0.426340600731550   1.0
