data_1
_audit_creation_method   'Generated by vasp2cif'
_cell_length_a    6.1204603085
_cell_length_b    6.15026228157
_cell_length_c    7.26201330226
_cell_angle_alpha    103.717948441
_cell_angle_beta    79.9848917286
_cell_angle_gamma    91.2274838169
_symmetry_space_group_name_H-M    'P 1'
loop_
_atom_site_label
_atom_site_type_symbol
_atom_site_fract_x
_atom_site_fract_y
_atom_site_fract_z
_atom_site_occupancy
C1   C   0.498040177106461   0.614050320857146   0.622040326293927   1.0
C2   C   0.402049514927143   0.439129048143329   0.729783822350313   1.0
C3   C   0.533856488002407   0.429915418636895   0.888877102617677   1.0
H4   H   0.520949703226478   0.589308367154416   0.996209860662923   1.0
H5   H   0.472148639061707   0.298505043946008   0.961095356256799   1.0
H6   H   0.409700303926051   0.274763614754377   0.628655802313872   1.0
H7   H   0.226138985991227   0.477814820988314   0.790192597349041   1.0
H8   H   0.411359218782003   0.444586265183311   0.356399183749609   1.0
H9   H   0.447913970620519   0.719559257909673   0.372414483254907   1.0
H10   H   0.709664558624510   0.393144814847147   0.829301250140375   1.0
H11   H   0.471555946900423   0.784867462567050   0.710564841565748   1.0
H12   H   0.675029528115324   0.585856001258229   0.566799184346131   1.0
H13   H   0.218793036963938   0.633497821051250   0.490148243917105   1.0
N17   N   0.387288768996775   0.601818571507245   0.448408132500070   1.0
