data_1
_audit_creation_method   'Generated by vasp2cif'
_cell_length_a    6.38259925947
_cell_length_b    6.13328938836
_cell_length_c    6.44055350866
_cell_angle_alpha    97.7249631037
_cell_angle_beta    81.2515408629
_cell_angle_gamma    96.1210947179
_symmetry_space_group_name_H-M    'P 1'
loop_
_atom_site_label
_atom_site_type_symbol
_atom_site_fract_x
_atom_site_fract_y
_atom_site_fract_z
_atom_site_occupancy
C1   C   0.503793481870468   0.576552986198654   0.616118045860854   1.0
C2   C   0.503393088927207   0.428846461024811   0.789021563011724   1.0
C3   C   0.606722248099302   0.213228274756052   0.708189160207168   1.0
H4   H   0.769754364938992   0.247659771884371   0.631001956156602   1.0
H5   H   0.612872994236653   0.120059674757182   0.839193440330602   1.0
H6   H   0.339869728871147   0.395650855054562   0.867359330013976   1.0
H7   H   0.592208283153042   0.524792762192488   0.908580974164509   1.0
H8   H   0.388241017674612   0.320494139247733   0.387040799630780   1.0
H9   H   0.353662022298675   0.577871456731832   0.344232350968810   1.0
H10   H   0.517416595183761   0.107037663255527   0.595056454316170   1.0
H11   H   0.449565799236132   0.737782499974996   0.679654074594297   1.0
H12   H   0.660318035091613   0.596918832466937   0.522529272304672   1.0
H13   H   0.197135445862444   0.463020165069108   0.535512353593394   1.0
N17   N   0.351594453085567   0.475389255787732   0.460175873719892   1.0
