data_1
_audit_creation_method   'Generated by vasp2cif'
_cell_length_a    6.43867584127
_cell_length_b    6.336896459
_cell_length_c    6.30038382112
_cell_angle_alpha    77.6692286699
_cell_angle_beta    89.6266156796
_cell_angle_gamma    82.8353766033
_symmetry_space_group_name_H-M    'P 1'
loop_
_atom_site_label
_atom_site_type_symbol
_atom_site_fract_x
_atom_site_fract_y
_atom_site_fract_z
_atom_site_occupancy
C1   C   0.586784855271226   0.596857013268497   0.361083369353054   1.0
C2   C   0.616507274030504   0.406238251044790   0.246747509555760   1.0
C3   C   0.414296052073929   0.306793124693762   0.223848285217329   1.0
H4   H   0.289776120418097   0.428275827428429   0.137896576614814   1.0
H5   H   0.442745294408631   0.176922480358222   0.134054502467357   1.0
H6   H   0.737968346422853   0.281045650779682   0.332808809254033   1.0
H7   H   0.679916608550251   0.467507244746102   0.086547663593272   1.0
H8   H   0.581458728186391   0.383767722480528   0.671177072870471   1.0
H9   H   0.343084941626842   0.503289857139173   0.583456106009457   1.0
H10   H   0.353865109549730   0.234265631940609   0.381970612890441   1.0
H11   H   0.734097309419468   0.657039575786222   0.384763939874475   1.0
H12   H   0.475198379852301   0.731407937603386   0.275778906062357   1.0
H13   H   0.512681238659248   0.646584155263916   0.675033866386727   1.0
N17   N   0.498772632979247   0.527393607624376   0.587937571605330   1.0
