data_1
_audit_creation_method   'Generated by vasp2cif'
_cell_length_a    7.52369770112
_cell_length_b    5.04862965298
_cell_length_c    8.78616724757
_cell_angle_alpha    85.8117726848
_cell_angle_beta    122.146500615
_cell_angle_gamma    114.156664554
_symmetry_space_group_name_H-M    'P 1'
loop_
_atom_site_label
_atom_site_type_symbol
_atom_site_fract_x
_atom_site_fract_y
_atom_site_fract_z
_atom_site_occupancy
C1   C   0.928820952992908   0.556433506689828   0.404473258025597   1.0
C2   C   0.773956671682271   0.652090712657774   0.425048324865728   1.0
C3   C   0.632739710271558   0.764053540349316   0.255348317826041   1.0
H4   H   0.745537242345684   0.936369201439774   0.221612717704069   1.0
H5   H   0.537508996774172   0.853324886022548   0.278911404509621   1.0
H6   H   0.654748108281190   0.466533545646506   0.447921651919970   1.0
H7   H   0.883494144076181   0.824151758788389   0.547023265853035   1.0
H8   H   0.958543568538829   0.283424359853051   0.605739728263565   1.0
H9   H   0.185057379957719   0.616091550863899   0.686528636550626   1.0
H10   H   0.826465410393297   0.376622065244483   0.288235117698598   1.0
H11   H   0.504592713438328   0.585329154914582   0.136215114976075   1.0
H12   H   0.059072069388208   0.738485965607815   0.390968373469313   1.0
H13   H   0.159061100574142   0.359527770552944   0.555429345730090   1.0
N17   N   0.067185656041943   0.444429378386261   0.574062010746054   1.0
