data_1
_audit_creation_method   'Generated by vasp2cif'
_cell_length_a    7.56124694379
_cell_length_b    4.90248364901
_cell_length_c    9.03658987272
_cell_angle_alpha    85.6414172347
_cell_angle_beta    122.690057491
_cell_angle_gamma    114.581023601
_symmetry_space_group_name_H-M    'P 1'
loop_
_atom_site_label
_atom_site_type_symbol
_atom_site_fract_x
_atom_site_fract_y
_atom_site_fract_z
_atom_site_occupancy
C1   C   0.964119964390164   0.573345407246441   0.428887686100663   1.0
C2   C   0.777626190927529   0.615749603168068   0.432076710620460   1.0
C3   C   0.653568955035172   0.760824880104361   0.275302805324088   1.0
H4   H   0.779208393621220   0.959217092206797   0.263126011255677   1.0
H5   H   0.545666925439481   0.830823123165677   0.293127242395859   1.0
H6   H   0.648256382958137   0.394780661664289   0.425323068368801   1.0
H7   H   0.859524054971778   0.757568873107443   0.560117416590147   1.0
H8   H   0.970372279478399   0.244737873124493   0.598966515391448   1.0
H9   H   0.193882728941947   0.590716863236764   0.705036271099889   1.0
H10   H   0.887566675922469   0.420255125161796   0.307051593938630   1.0
H11   H   0.537789284666543   0.598197800742498   0.148207449818329   1.0
H12   H   0.102645428174477   0.788054588964864   0.441421881311832   1.0
H13   H   0.193750491300917   0.368658203874475   0.573067547777567   1.0
N17   N   0.088332474232115   0.432038617363345   0.586208016119362   1.0
