data_1
_audit_creation_method   'Generated by vasp2cif'
_cell_length_a    7.89343579444
_cell_length_b    4.74245464274
_cell_length_c    8.78368320394
_cell_angle_alpha    100.957565224
_cell_angle_beta    121.941911323
_cell_angle_gamma    65.1274398817
_symmetry_space_group_name_H-M    'P 1'
loop_
_atom_site_label
_atom_site_type_symbol
_atom_site_fract_x
_atom_site_fract_y
_atom_site_fract_z
_atom_site_occupancy
C1   C   0.167381552243492   0.383754348174317   0.590109313553034   1.0
C2   C   0.261617128246276   0.619533245906050   0.605029334283599   1.0
C3   C   0.429718700590711   0.650588595835814   0.798248495142512   1.0
H4   H   0.353898423914938   0.766967346677619   0.879814598986768   1.0
H5   H   0.512549803241363   0.788183023088868   0.800573088377832   1.0
H6   H   0.333414464722848   0.550881575574597   0.519179984409002   1.0
H7   H   0.129153413574828   0.844983582681414   0.551735132891004   1.0
H8   H   0.876519528246117   0.580947676845737   0.343034628798299   1.0
H9   H   0.852094361743191   0.707965414179930   0.523821364227246   1.0
H10   H   0.230436527762295   0.170940113334012   0.531378368321992   1.0
H11   H   0.552877611712677   0.424307112428787   0.862745160643623   1.0
H12   H   0.198211705492521   0.325647398236963   0.719240978596816   1.0
H13   H   0.857831301019982   0.353168088162713   0.453089977557578   1.0
N17   N   0.922011795626952   0.512843961204985   0.468909592294609   1.0
