data_1
_audit_creation_method   'Generated by vasp2cif'
_cell_length_a    9.20473445468
_cell_length_b    4.790275683
_cell_length_c    7.04742208418
_cell_angle_alpha    78.5078295728
_cell_angle_beta    58.068801246
_cell_angle_gamma    95.5333021622
_symmetry_space_group_name_H-M    'P 1'
loop_
_atom_site_label
_atom_site_type_symbol
_atom_site_fract_x
_atom_site_fract_y
_atom_site_fract_z
_atom_site_occupancy
C1   C   0.607911632806055   0.623509380009291   0.972444480609170   1.0
C2   C   0.635561904603469   0.826494440456324   0.753840132489344   1.0
C3   C   0.782407942864308   0.104501617866972   0.651461895966959   1.0
H4   H   0.766851585195014   0.202282964211079   0.786072693439608   1.0
H5   H   0.783688945499469   0.266381171151198   0.517588269107084   1.0
H6   H   0.669229893529753   0.710947350940370   0.621995704800780   1.0
H7   H   0.511749993790261   0.885126534467808   0.796310990336910   1.0
H8   H   0.465871408247699   0.260755119370183   0.953878771092224   1.0
H9   H   0.337928465953843   0.412147270208223   0.157856126968892   1.0
H10   H   0.724877438310865   0.544824520872881   0.934681275405983   1.0
H11   H   0.912268215479912   0.054938726566230   0.569010036307858   1.0
H12   H   0.571256049707292   0.725388349666148   0.111921558353321   1.0
H13   H   0.454452025925129   0.197407134215159   0.205819735503311   1.0
N17   N   0.457873302628262   0.352550936824238   0.078409295046570   1.0
