data_1
_audit_creation_method   'Generated by vasp2cif'
_cell_length_a    7.40396180233
_cell_length_b    5.20735519704
_cell_length_c    8.52226547249
_cell_angle_alpha    94.2537481744
_cell_angle_beta    120.969145177
_cell_angle_gamma    66.40877956
_symmetry_space_group_name_H-M    'P 1'
loop_
_atom_site_label
_atom_site_type_symbol
_atom_site_fract_x
_atom_site_fract_y
_atom_site_fract_z
_atom_site_occupancy
C1   C   0.164354952512508   0.419976655750543   0.655687617012146   1.0
C2   C   0.271623024102052   0.587489561130218   0.620382539898884   1.0
C3   C   0.441236461864230   0.654825833537358   0.801050227670938   1.0
H4   H   0.576700073963444   0.462463694319491   0.902414017002092   1.0
H5   H   0.350977624699719   0.797006186729014   0.863891130685175   1.0
H6   H   0.362210621279033   0.466447769395395   0.551744699286622   1.0
H7   H   0.131972667303382   0.784811593437093   0.525008565204400   1.0
H8   H   0.056810903009793   0.248706445877960   0.405178944606334   1.0
H9   H   0.857675965160843   0.568920975450553   0.384686915607679   1.0
H10   H   0.293037216644702   0.209539553689626   0.736686946525654   1.0
H11   H   0.526138752005289   0.758289408235389   0.772010374285962   1.0
H12   H   0.073578305094519   0.532394901559079   0.724981428955456   1.0
H13   H   0.897436655857644   0.281295977349133   0.497371213493163   1.0
N17   N   0.980917470596450   0.376982131690017   0.473151800563040   1.0
