data_1
_audit_creation_method   'Generated by vasp2cif'
_cell_length_a    6.48858626901
_cell_length_b    7.22380071353
_cell_length_c    6.35833313917
_cell_angle_alpha    79.5474012207
_cell_angle_beta    96.9661547085
_cell_angle_gamma    110.863672829
_symmetry_space_group_name_H-M    'P 1'
loop_
_atom_site_label
_atom_site_type_symbol
_atom_site_fract_x
_atom_site_fract_y
_atom_site_fract_z
_atom_site_occupancy
C1   C   0.209265562821379   0.683262945135290   0.528212953769284   1.0
C2   C   0.427462095965495   0.272030919224278   0.417265075010832   1.0
C3   C   0.332424123698360   0.440990323952299   0.375169730736829   1.0
C4   C   0.286791215163895   0.502332800467968   0.579682027090755   1.0
H5   H   0.760752586359487   0.460266142492415   0.423480054220882   1.0
H6   H   0.725483764765421   0.225925367270492   0.540552008630932   1.0
H7   H   0.667128000508185   0.383054680763841   0.670605087962031   1.0
H8   H   0.340798181101874   0.815658740895444   0.458577865345070   1.0
H9   H   0.068283584200593   0.657440947851484   0.410062853338445   1.0
H10   H   0.162163513312898   0.716102698959503   0.671889515368512   1.0
H11   H   0.177785408377325   0.390395776098536   0.276343755301696   1.0
H12   H   0.442820295019665   0.571946951809082   0.277195498849004   1.0
H13   H   0.161840780077355   0.374039213092935   0.667222747501455   1.0
H14   H   0.435171476521155   0.539478310215742   0.689256312266942   1.0
H15   H   0.331431755255544   0.143714091628297   0.525964866413936   1.0
H16   H   0.442854629810981   0.222589849970660   0.269786877312399   1.0
N20   N   0.660915123780264   0.341025705099305   0.522268972316979   1.0
