data_1
_audit_creation_method   'Generated by vasp2cif'
_cell_length_a    6.60409891081
_cell_length_b    6.20617047925
_cell_length_c    6.2544892764
_cell_angle_alpha    81.4254825704
_cell_angle_beta    83.5280119357
_cell_angle_gamma    90.4247833767
_symmetry_space_group_name_H-M    'P 1'
loop_
_atom_site_label
_atom_site_type_symbol
_atom_site_fract_x
_atom_site_fract_y
_atom_site_fract_z
_atom_site_occupancy
C1   C   0.414961806225882   0.698712647151396   0.199476235791842   1.0
C2   C   0.565601765857409   0.886599857463480   0.198929203716531   1.0
C3   C   0.485005576651297   0.052689110546765   0.341869083177528   1.0
H4   H   0.448014839566937   0.975117920952194   0.511280780890544   1.0
H5   H   0.594697232775914   0.186087253337014   0.336328619991939   1.0
H6   H   0.345922207544014   0.120595008460533   0.283677463786539   1.0
H7   H   0.864373514380098   0.919865284280071   0.289137285601782   1.0
H8   H   0.614208675303715   0.965253403110765   0.032587352559801   1.0
H9   H   0.481090111686150   0.573801492470835   0.108627329376240   1.0
H10   H   0.283264920463608   0.762765013359449   0.121240882510719   1.0
H11   H   0.362363365936929   0.623234803584268   0.366349326874989   1.0
H12   H   0.831341729806162   0.688432930344938   0.188071617031241   1.0
H13   H   0.728509017474188   0.708876061965086   0.440437545800059   1.0
N17   N   0.761891123423382   0.794334187388728   0.284663389217371   1.0
