data_1
_audit_creation_method   'Generated by vasp2cif'
_cell_length_a    6.11660017757
_cell_length_b    6.4342738687
_cell_length_c    6.4539229702
_cell_angle_alpha    88.2949412985
_cell_angle_beta    95.3368453156
_cell_angle_gamma    79.8729936274
_symmetry_space_group_name_H-M    'P 1'
loop_
_atom_site_label
_atom_site_type_symbol
_atom_site_fract_x
_atom_site_fract_y
_atom_site_fract_z
_atom_site_occupancy
C1   C   0.238914885552610   0.795489621583748   0.528365436519238   1.0
C2   C   0.347137060029077   0.879941512206337   0.347700162266975   1.0
C3   C   0.555404735535575   0.970334037227467   0.414935811779372   1.0
H4   H   0.506510591802517   0.110144745544296   0.503532954964633   1.0
H5   H   0.676215548622480   0.856329351474955   0.515409854357188   1.0
H6   H   0.635016192480322   0.017722668038651   0.281191470245972   1.0
H7   H   0.496768319700251   0.745871486655552   0.084154353202912   1.0
H8   H   0.225897518828006   0.997543827987705   0.251834071698390   1.0
H9   H   0.199360920303896   0.921974724544064   0.635178336854416   1.0
H10   H   0.352715925137396   0.664229729689794   0.615134741466143   1.0
H11   H   0.084936453610865   0.740830895973446   0.475003312152175   1.0
H12   H   0.269060369186462   0.648942321301320   0.134330341796755   1.0
H13   H   0.514444928303071   0.571849679737937   0.281533768783611   1.0
N17   N   0.409502136061200   0.698882729280804   0.201783889231649   1.0
