data_1
_audit_creation_method   'Generated by vasp2cif'
_cell_length_a    6.46178507167
_cell_length_b    6.35812476108
_cell_length_c    6.21407224
_cell_angle_alpha    78.804871882
_cell_angle_beta    83.9236462912
_cell_angle_gamma    90.7061134483
_symmetry_space_group_name_H-M    'P 1'
loop_
_atom_site_label
_atom_site_type_symbol
_atom_site_fract_x
_atom_site_fract_y
_atom_site_fract_z
_atom_site_occupancy
C1   C   0.434057985711966   0.643302780045211   0.353463037014713   1.0
C2   C   0.606674635888687   0.754131497992141   0.444150201757310   1.0
C3   C   0.534365462044427   0.846708103796921   0.646746820944145   1.0
H4   H   0.426915604849121   0.974407354919776   0.599435963825073   1.0
H5   H   0.452536538138027   0.724779968215437   0.777567213343509   1.0
H6   H   0.664731078915878   0.914943467893359   0.711178171876327   1.0
H7   H   0.887055596971670   0.655759347645720   0.581802086672205   1.0
H8   H   0.686302489484120   0.878487366302430   0.314635852630744   1.0
H9   H   0.313921269507709   0.758435280285113   0.309875741235402   1.0
H10   H   0.361567766440302   0.508177594135766   0.476896645452868   1.0
H11   H   0.492256265976664   0.583429960855874   0.205852767254136   1.0
H12   H   0.846020648473825   0.542131579125176   0.367165066701126   1.0
H13   H   0.709629918636217   0.457336122421580   0.616745735397359   1.0
N17   N   0.774541942810671   0.590437777283576   0.505432788984486   1.0
