data_1
_audit_creation_method   'Generated by vasp2cif'
_cell_length_a    6.24653925925
_cell_length_b    6.07164866387
_cell_length_c    6.63329220672
_cell_angle_alpha    95.520884456
_cell_angle_beta    92.3298012387
_cell_angle_gamma    83.1181244183
_symmetry_space_group_name_H-M    'P 1'
loop_
_atom_site_label
_atom_site_type_symbol
_atom_site_fract_x
_atom_site_fract_y
_atom_site_fract_z
_atom_site_occupancy
C1   C   0.601113180249122   0.723192620129268   0.628491466655163   1.0
C2   C   0.455609494467069   0.539380875623777   0.635882621178560   1.0
C3   C   0.324367437487098   0.559212504678896   0.827084631807928   1.0
H4   H   0.434072261672043   0.556479855777695   0.959306680146391   1.0
H5   H   0.225895808781431   0.422395079001554   0.827280445947338   1.0
H6   H   0.219247234699587   0.717504615975933   0.839725741684830   1.0
H7   H   0.369535243096465   0.513562646618176   0.319018690267647   1.0
H8   H   0.548639970000721   0.374723042234422   0.611977711505240   1.0
H9   H   0.729907473461033   0.701665599855154   0.743831047512607   1.0
H10   H   0.674913117506016   0.714465749175410   0.481319361377402   1.0
H11   H   0.510653421443998   0.888289527270757   0.659683415924967   1.0
H12   H   0.185564681917732   0.434241925665752   0.460672507460942   1.0
H13   H   0.206442378919803   0.706779418091635   0.458057413752421   1.0
N17   N   0.293421251933246   0.550089403728542   0.455001957391332   1.0
