data_1
_audit_creation_method   'Generated by vasp2cif'
_cell_length_a    7.33124018274
_cell_length_b    4.70491788055
_cell_length_c    8.24315851871
_cell_angle_alpha    106.06885945
_cell_angle_beta    91.5196844479
_cell_angle_gamma    109.264442745
_symmetry_space_group_name_H-M    'P 1'
loop_
_atom_site_label
_atom_site_type_symbol
_atom_site_fract_x
_atom_site_fract_y
_atom_site_fract_z
_atom_site_occupancy
C1   C   0.695767388695655   0.941833966368513   0.637926211173391   1.0
C2   C   0.570489900376114   0.590608380741410   0.582846155597740   1.0
C3   C   0.441848798502762   0.503202909271040   0.717111965036727   1.0
H4   H   0.532629977839136   0.566004451498783   0.837801578756241   1.0
H5   H   0.354730740857503   0.252148312948204   0.680668355131019   1.0
H6   H   0.342275637714955   0.636441117795504   0.740333703690156   1.0
H7   H   0.517334272119554   0.556939466965397   0.319440026571990   1.0
H8   H   0.664129142529762   0.449716291794709   0.551862736150707   1.0
H9   H   0.760975927915595   0.018770638553636   0.532821981494102   1.0
H10   H   0.609504821936452   0.084305158428334   0.695506762800008   1.0
H11   H   0.815242862048065   0.980044559099152   0.733265665044873   1.0
H12   H   0.360040404838266   0.260326561880669   0.373788643278728   1.0
H13   H   0.337181144540409   0.612265632761098   0.428227268829859   1.0
N17   N   0.439010727866213   0.499812934230702   0.415152556355630   1.0
