data_1
_audit_creation_method   'Generated by vasp2cif'
_cell_length_a    8.26100095644
_cell_length_b    4.74025408743
_cell_length_c    7.26219142998
_cell_angle_alpha    110.061214234
_cell_angle_beta    79.1984413401
_cell_angle_gamma    105.034810797
_symmetry_space_group_name_H-M    'P 1'
loop_
_atom_site_label
_atom_site_type_symbol
_atom_site_fract_x
_atom_site_fract_y
_atom_site_fract_z
_atom_site_occupancy
C1   C   0.349589938158466   0.356059132321853   0.684444971470477   1.0
C2   C   0.403171615165960   0.054137709630027   0.561578227091381   1.0
C3   C   0.271133546056646   0.837848978314454   0.426485542568109   1.0
H4   H   0.150599947438352   0.790937680624154   0.514399382212822   1.0
H5   H   0.306754013372483   0.619687298027131   0.341341622067567   1.0
H6   H   0.250862409273722   0.944828072343476   0.322856647063695   1.0
H7   H   0.664173997348854   0.268520340578689   0.516524467633303   1.0
H8   H   0.431442991587531   0.946962630187976   0.659600956663816   1.0
H9   H   0.292647843149673   0.439288987118957   0.594315483944186   1.0
H10   H   0.255279794925805   0.310274660008964   0.804256092919076   1.0
H11   H   0.454024346635251   0.533362096086293   0.752200372093832   1.0
H12   H   0.612660871064378   0.914517024600407   0.359642101269763   1.0
H13   H   0.559098272407468   0.207030075879928   0.327136142753027   1.0
N17   N   0.570764099818156   0.115458986259611   0.434120739357063   1.0
