data_1
_audit_creation_method   'Generated by vasp2cif'
_cell_length_a    7.83203600836
_cell_length_b    4.84467016753
_cell_length_c    7.66281880713
_cell_angle_alpha    79.8914993446
_cell_angle_beta    77.0429663042
_cell_angle_gamma    70.118078947
_symmetry_space_group_name_H-M    'P 1'
loop_
_atom_site_label
_atom_site_type_symbol
_atom_site_fract_x
_atom_site_fract_y
_atom_site_fract_z
_atom_site_occupancy
C1   C   0.628141324765316   0.264212746976732   0.320219990256909   1.0
C2   C   0.608149875325566   0.973016892959684   0.421511740139763   1.0
C3   C   0.765347937850272   0.798347820075833   0.523488070713597   1.0
H4   H   0.896084808599120   0.739595702671359   0.429511032730048   1.0
H5   H   0.744193140477186   0.595735272617894   0.598238894380493   1.0
H6   H   0.778747856787554   0.930387624783648   0.619180586332803   1.0
H7   H   0.314192823839726   0.113138620126897   0.494142230866984   1.0
H8   H   0.590844208715197   0.841959770842521   0.328333783305624   1.0
H9   H   0.659800326109966   0.385558860421320   0.409599848105195   1.0
H10   H   0.742143952413201   0.218605601045631   0.205851808847854   1.0
H11   H   0.503684523912021   0.400664414874910   0.267311965615527   1.0
H12   H   0.416717349902619   0.848427352889651   0.642119211261864   1.0
H13   H   0.420064236542274   0.187605013524319   0.642578652297523   1.0
N17   N   0.427335370210969   0.036824573808865   0.558005498668280   1.0
