data_1
_audit_creation_method   'Generated by vasp2cif'
_cell_length_a    7.38851958613
_cell_length_b    4.70912169057
_cell_length_c    8.10861374571
_cell_angle_alpha    105.299196025
_cell_angle_beta    90.2534152009
_cell_angle_gamma    109.410634648
_symmetry_space_group_name_H-M    'P 1'
loop_
_atom_site_label
_atom_site_type_symbol
_atom_site_fract_x
_atom_site_fract_y
_atom_site_fract_z
_atom_site_occupancy
C1   C   0.332819113190567   0.629992287661132   0.321457037581119   1.0
C2   C   0.452723382872605   0.463254965386284   0.385498082489022   1.0
C3   C   0.588299993353054   0.378538652608285   0.255106926084991   1.0
H4   H   0.505435362344457   0.235556410105538   0.131930750628491   1.0
H5   H   0.670022526145949   0.250699196929709   0.296625389476930   1.0
H6   H   0.690840537875992   0.591113651103456   0.232584680359089   1.0
H7   H   0.493579322751948   0.758676375928651   0.645531270489037   1.0
H8   H   0.356604462343562   0.258120307758865   0.418763294821851   1.0
H9   H   0.423012710137137   0.804787017698274   0.262757140158079   1.0
H10   H   0.220760000221020   0.453794436675906   0.223048160502785   1.0
H11   H   0.260542873567303   0.738928198440348   0.423192838549276   1.0
H12   H   0.639556681621734   0.547028007184444   0.608272159207047   1.0
H13   H   0.685364670877384   0.862734748393891   0.539217115263071   1.0
N17   N   0.574495747089479   0.670070498454841   0.555554815633840   1.0
