data_1
_audit_creation_method   'Generated by vasp2cif'
_cell_length_a    6.56961704163
_cell_length_b    4.38619504992
_cell_length_c    8.83910229046
_cell_angle_alpha    84.4836573887
_cell_angle_beta    83.1741026488
_cell_angle_gamma    96.6929256137
_symmetry_space_group_name_H-M    'P 1'
loop_
_atom_site_label
_atom_site_type_symbol
_atom_site_fract_x
_atom_site_fract_y
_atom_site_fract_z
_atom_site_occupancy
C1   C   0.472069137936380   0.579853727927436   0.657213443972438   1.0
C2   C   0.434093391259452   0.431334012263747   0.512710804481664   1.0
C3   C   0.312939561721969   0.613912148440697   0.407012671168303   1.0
H4   H   0.174675149858047   0.668945620331073   0.475042711724050   1.0
H5   H   0.265491063437608   0.483495074107587   0.315389198987639   1.0
H6   H   0.403444934325250   0.831071584297398   0.353030747499091   1.0
H7   H   0.628010595566870   0.282189309678458   0.328041612898943   1.0
H8   H   0.354749496748880   0.196897983960092   0.543580625774489   1.0
H9   H   0.550887412085231   0.436037202444240   0.732687514405704   1.0
H10   H   0.565361775772494   0.806249802971827   0.630829002620089   1.0
H11   H   0.323889099845296   0.611423848636157   0.719950614085384   1.0
H12   H   0.731658495961923   0.604749505342397   0.384462853490184   1.0
H13   H   0.732832126327985   0.272817609380802   0.493841728601808   1.0
N17   N   0.644995138937290   0.392657268988288   0.425020196358652   1.0
