data_1
_audit_creation_method   'Generated by vasp2cif'
_cell_length_a    6.21460491776
_cell_length_b    6.21022294122
_cell_length_c    6.17675713974
_cell_angle_alpha    80.7693608338
_cell_angle_beta    101.090105368
_cell_angle_gamma    97.1922440906
_symmetry_space_group_name_H-M    'P 1'
loop_
_atom_site_label
_atom_site_type_symbol
_atom_site_fract_x
_atom_site_fract_y
_atom_site_fract_z
_atom_site_occupancy
H4   H   0.514639853727036   0.667778696439342   0.374642296270554   1.0
H5   H   0.713115974819171   0.375935791659179   0.312480721218935   1.0
H6   H   0.670252356624278   0.558807207129733   0.608175442585754   1.0
H7   H   0.186625162455348   0.449850928377099   0.485135289316549   1.0
H8   H   0.359419334270563   0.341965526104821   0.735672926018585   1.0
H9   H   0.318961063111268   0.627715394795608   0.683250223883913   1.0
H10   H   0.420425508438372   0.322586910348870   0.242625623116828   1.0
H11   H   0.564488232836854   0.191899174820653   0.499428902036388   1.0
C12   C   0.332481803912797   0.484167059298179   0.608716021524848   1.0
C13   C   0.559908688222858   0.339905014744515   0.377660144544293   1.0
N15   N   0.529736222972625   0.528656213188672   0.492244590186981   1.0
