data_1
_audit_creation_method   'Generated by vasp2cif'
_cell_length_a    6.21613765609
_cell_length_b    6.2112430726
_cell_length_c    6.15889087524
_cell_angle_alpha    83.6248188727
_cell_angle_beta    101.386355241
_cell_angle_gamma    98.8933494044
_symmetry_space_group_name_H-M    'P 1'
loop_
_atom_site_label
_atom_site_type_symbol
_atom_site_fract_x
_atom_site_fract_y
_atom_site_fract_z
_atom_site_occupancy
H4   H   0.340291234368561   0.585024043928374   0.265708960062084   1.0
H5   H   0.656465034353580   0.406231959966120   0.264190676154250   1.0
H6   H   0.555967627286706   0.684944547123767   0.450555156354844   1.0
H7   H   0.174128133752958   0.358630245008878   0.548502103410794   1.0
H8   H   0.405243929896380   0.458692746674527   0.751847253269579   1.0
H9   H   0.220006442981472   0.641160947678425   0.602954634050449   1.0
H10   H   0.437523304586529   0.217999437919444   0.356251600869373   1.0
H11   H   0.667899997408077   0.327678165555345   0.554438957531163   1.0
C12   C   0.298030550381289   0.498195436363736   0.594472256757124   1.0
C13   C   0.560078870105700   0.360327023499359   0.395817842792318   1.0
N15   N   0.439624301804567   0.548230024475347   0.416880333359425   1.0
