data_1
_audit_creation_method   'Generated by vasp2cif'
_cell_length_a    6.21887939685
_cell_length_b    4.40805334404
_cell_length_c    8.43705680325
_cell_angle_alpha    91.8678429015
_cell_angle_beta    83.0384185859
_cell_angle_gamma    98.6574853398
_symmetry_space_group_name_H-M    'P 1'
loop_
_atom_site_label
_atom_site_type_symbol
_atom_site_fract_x
_atom_site_fract_y
_atom_site_fract_z
_atom_site_occupancy
H4   H   0.707010521801678   0.274037055001898   0.430716690953155   1.0
H5   H   0.370787717133872   0.454691691147339   0.563039170579913   1.0
H6   H   0.512401745751582   0.790995780713502   0.595998906910111   1.0
H7   H   0.448280996475766   0.489158403575743   0.279314968028906   1.0
H8   H   0.332786971165255   0.816001742128968   0.359927091977987   1.0
H9   H   0.622534504729991   0.844358681497340   0.300214386411120   1.0
H10   H   0.702623049198706   0.362041453744034   0.640935553533204   1.0
H11   H   0.853097288690300   0.624489204417984   0.496263597457407   1.0
C12   C   0.475543754697469   0.697779539948179   0.351477221548045   1.0
C13   C   0.708027134804318   0.453954191886744   0.522098500368486   1.0
N15   N   0.507489464973041   0.606773173106454   0.517220474278744   1.0
