data_1
_audit_creation_method   'Generated by vasp2cif'
_cell_length_a    8.36582068621
_cell_length_b    4.40284206751
_cell_length_c    7.1537930492
_cell_angle_alpha    120.775007037
_cell_angle_beta    91.9715617811
_cell_angle_gamma    94.5621796086
_symmetry_space_group_name_H-M    'P 1'
loop_
_atom_site_label
_atom_site_type_symbol
_atom_site_fract_x
_atom_site_fract_y
_atom_site_fract_z
_atom_site_occupancy
H4   H   0.449705943187476   0.523718974931067   0.288624533570578   1.0
H5   H   0.536602708345143   0.078149498929111   0.638569990653589   1.0
H6   H   0.590896050065435   0.278280152790020   0.506913907715640   1.0
H7   H   0.259131415780761   0.963505526126218   0.498864560322962   1.0
H8   H   0.327630538702002   0.425919022692902   0.625945568075190   1.0
H9   H   0.309450511514333   0.145679267079003   0.333169637777440   1.0
H10   H   0.662016991427678   0.673544534079775   0.334181126305261   1.0
H11   H   0.533191304929543   0.742409770135712   0.157676331210706   1.0
C12   C   0.338275134728690   0.161079479263319   0.487618463951142   1.0
C13   C   0.541709105464967   0.725994259600523   0.304405095867671   1.0
N15   N   0.509640388955669   0.079419541403219   0.495920533109324   1.0
