data_1
_audit_creation_method   'Generated by vasp2cif'
_cell_length_a    6.23003072824
_cell_length_b    4.47273454421
_cell_length_c    8.14316646464
_cell_angle_alpha    80.6380424837
_cell_angle_beta    85.8942962431
_cell_angle_gamma    82.8236250076
_symmetry_space_group_name_H-M    'P 1'
loop_
_atom_site_label
_atom_site_type_symbol
_atom_site_fract_x
_atom_site_fract_y
_atom_site_fract_z
_atom_site_occupancy
H4   H   0.311145646155083   0.142413290350049   0.537622639375392   1.0
H5   H   0.660124576842030   0.359104993808252   0.491493181064946   1.0
H6   H   0.534965606790230   0.684816657715508   0.404482108022179   1.0
H7   H   0.472795040500991   0.381217322419502   0.756405378306397   1.0
H8   H   0.584605711559483   0.730560444456167   0.686100366596015   1.0
H9   H   0.300942253343564   0.708355787789920   0.667798518893036   1.0
H10   H   0.394447956401351   0.252664351179810   0.321725701686212   1.0
H11   H   0.192922376819027   0.489072400166002   0.425017327016157   1.0
C12   C   0.463747143623799   0.587354193895330   0.664180080715347   1.0
C13   C   0.339868704278608   0.330142040094017   0.439328838505709   1.0
N15   N   0.513151597896957   0.496301733625039   0.493218738299120   1.0
