data_1
_audit_creation_method   'Generated by vasp2cif'
_cell_length_a    6.240393066
_cell_length_b    6.2672541521
_cell_length_c    6.26675019697
_cell_angle_alpha    91.1113280913
_cell_angle_beta    100.672861232
_cell_angle_gamma    100.962810573
_symmetry_space_group_name_H-M    'P 1'
loop_
_atom_site_label
_atom_site_type_symbol
_atom_site_fract_x
_atom_site_fract_y
_atom_site_fract_z
_atom_site_occupancy
C1   C   0.641075052554345   0.507761725843488   0.523060563228399   1.0
C2   C   0.500376627497973   0.621478320218941   0.637008647407284   1.0
H3   H   0.330559520729967   0.602174124460437   0.891077810268429   1.0
H4   H   0.327249527778702   0.872195301320462   0.618394320570336   1.0
H5   H   0.764836126190603   0.446916532290005   0.640119271092743   1.0
H6   H   0.726140461228472   0.615394987879774   0.417188736313217   1.0
H7   H   0.533848711724979   0.368474713088642   0.423359495140776   1.0
H8   H   0.478838929481218   0.854563688145286   0.415968435905836   1.0
H9   H   0.484449036310144   0.402523018451460   0.872860926580762   1.0
N13   N   0.439677413704385   0.541749192589135   0.815838552603529   1.0
N14   N   0.435741977405919   0.797652218913121   0.556157311129829   1.0
