data_1
_audit_creation_method   'Generated by vasp2cif'
_cell_length_a    6.23792565522
_cell_length_b    6.22533082919
_cell_length_c    6.18585058684
_cell_angle_alpha    84.0813538028
_cell_angle_beta    101.148399145
_cell_angle_gamma    90.4017018353
_symmetry_space_group_name_H-M    'P 1'
loop_
_atom_site_label
_atom_site_type_symbol
_atom_site_fract_x
_atom_site_fract_y
_atom_site_fract_z
_atom_site_occupancy
C1   C   0.585315761890520   0.471223290891451   0.428142191127300   1.0
C2   C   0.508511727317959   0.627130819408798   0.566531892931970   1.0
H3   H   0.298726925459846   0.668025017006336   0.780146159659012   1.0
H4   H   0.564485270159324   0.924691422016714   0.679776618337094   1.0
H5   H   0.598752211283418   0.551871039249910   0.265884088615955   1.0
H6   H   0.474802838380803   0.335630853887587   0.406547245318464   1.0
H7   H   0.748040427872397   0.409263854952094   0.510025114459225   1.0
H8   H   0.720658175191687   0.860416821502398   0.491123195560526   1.0
H9   H   0.284612297403555   0.422746452633163   0.668004550769560   1.0
N13   N   0.356894312106263   0.568734657485365   0.683356887108836   1.0
N14   N   0.597207281286167   0.820899817607476   0.572542503948888   1.0
