data_1
_audit_creation_method   'Generated by vasp2cif'
_cell_length_a    8.43245039028
_cell_length_b    4.32553330014
_cell_length_c    6.35972846544
_cell_angle_alpha    102.673420899
_cell_angle_beta    84.0462718453
_cell_angle_gamma    90.2103425431
_symmetry_space_group_name_H-M    'P 1'
loop_
_atom_site_label
_atom_site_type_symbol
_atom_site_fract_x
_atom_site_fract_y
_atom_site_fract_z
_atom_site_occupancy
C1   C   0.392598566475925   0.806132695218857   0.385973030872819   1.0
C2   C   0.526869139995959   0.756398638745175   0.512439609899879   1.0
H3   H   0.681638246750374   0.016918353127814   0.359591088051758   1.0
H4   H   0.762116817440912   0.852607683221173   0.553535728049084   1.0
H5   H   0.358346191807463   0.577588256448855   0.290943061325372   1.0
H6   H   0.288199025789631   0.907845479055673   0.495933894743253   1.0
H7   H   0.427419623085790   0.960493549363235   0.275468237754929   1.0
H8   H   0.590384570021087   0.542836396231181   0.752874731448877   1.0
H9   H   0.394926041243160   0.494893665165492   0.696307776594082   1.0
N13   N   0.665680226698264   0.889434188541792   0.477087744599785   1.0
N14   N   0.504838583163185   0.576733934534801   0.657809359600726   1.0
