data_1
_audit_creation_method   'Generated by vasp2cif'
_cell_length_a    6.30857816422
_cell_length_b    4.27485144882
_cell_length_c    9.21794190928
_cell_angle_alpha    108.950778624
_cell_angle_beta    79.4376787393
_cell_angle_gamma    92.30331883
_symmetry_space_group_name_H-M    'P 1'
loop_
_atom_site_label
_atom_site_type_symbol
_atom_site_fract_x
_atom_site_fract_y
_atom_site_fract_z
_atom_site_occupancy
C1   C   0.474534647740469   0.537275302919241   0.646134459857784   1.0
C2   C   0.472159051401206   0.318182190350519   0.483029011902509   1.0
H3   H   0.338799651124603   0.245823953609765   0.287257122776864   1.0
H4   H   0.225629996167477   0.568422352075345   0.451995493097002   1.0
H5   H   0.449032933098167   0.391326730943327   0.725238291089070   1.0
H6   H   0.632808082478121   0.649802110300406   0.652976721815385   1.0
H7   H   0.351493280502822   0.732646789812691   0.683238879425431   1.0
H8   H   0.617653415940524   0.908807940938757   0.311133874225085   1.0
H9   H   0.722832661311614   0.034394313813841   0.483387702412138   1.0
N13   N   0.338708987119503   0.384050028733796   0.400634468957470   1.0
N14   N   0.607565676209937   0.059879301196922   0.423416801504509   1.0
