data_1
_audit_creation_method   'Generated by vasp2cif'
_cell_length_a    8.65070746147
_cell_length_b    4.05399583478
_cell_length_c    6.65864461724
_cell_angle_alpha    86.8930508206
_cell_angle_beta    88.4749443364
_cell_angle_gamma    88.8007192494
_symmetry_space_group_name_H-M    'P 1'
loop_
_atom_site_label
_atom_site_type_symbol
_atom_site_fract_x
_atom_site_fract_y
_atom_site_fract_z
_atom_site_occupancy
C1   C   0.611860026233754   0.932334194361175   0.542966561296871   1.0
C2   C   0.490288047978569   0.748097606503044   0.441266203967818   1.0
H3   H   0.343827929541775   0.740799412081384   0.685734088645742   1.0
H4   H   0.277767243745841   0.523723253525433   0.489327791933599   1.0
H5   H   0.694265555511666   0.753596268352957   0.612331287975702   1.0
H6   H   0.676275854625710   0.092340577902420   0.434996952729793   1.0
H7   H   0.560883349286919   0.076351399851880   0.662476424465317   1.0
H8   H   0.438702105193585   0.529673492573262   0.178317377082593   1.0
H9   H   0.609210011396045   0.747886832371374   0.173413780283002   1.0
N13   N   0.362473213721338   0.663430140863683   0.544123238643075   1.0
N14   N   0.515987146026817   0.660554941104071   0.254339258742389   1.0
