data_1
_audit_creation_method   'Generated by vasp2cif'
_cell_length_a    6.02468411974
_cell_length_b    5.91633088528
_cell_length_c    6.02521176237
_cell_angle_alpha    90.0016145053
_cell_angle_beta    93.5223271074
_cell_angle_gamma    89.8462824623
_symmetry_space_group_name_H-M    'P 1'
loop_
_atom_site_label
_atom_site_type_symbol
_atom_site_fract_x
_atom_site_fract_y
_atom_site_fract_z
_atom_site_occupancy
H4   H   0.532202412877908   0.500502542374932   0.266748661620113   1.0
H5   H   0.645355458488119   0.360439096378258   0.484566696712086   1.0
H6   H   0.640420269216165   0.643944030025558   0.484232142160252   1.0
H7   H   0.240860827914489   0.343061868337052   0.489668729982441   1.0
H8   H   0.359095807028531   0.498570013984391   0.723138026706501   1.0
H9   H   0.234039109785634   0.646648648117534   0.487675074495875   1.0
C10   C   0.327586117286394   0.496962383202671   0.543137489409958   1.0
N12   N   0.549978749473887   0.500769765222650   0.438073447540049   1.0
