data_1
_audit_creation_method   'Generated by vasp2cif'
_cell_length_a    5.98258926591
_cell_length_b    5.96450764847
_cell_length_c    6.06185907385
_cell_angle_alpha    86.5300522233
_cell_angle_beta    85.0875604695
_cell_angle_gamma    92.4123314656
_symmetry_space_group_name_H-M    'P 1'
loop_
_atom_site_label
_atom_site_type_symbol
_atom_site_fract_x
_atom_site_fract_y
_atom_site_fract_z
_atom_site_occupancy
H4   H   0.305719315216805   0.352971508352319   0.481431573049534   1.0
H5   H   0.560039058616731   0.406850538851742   0.345398264715939   1.0
H6   H   0.383914395469482   0.612826927860510   0.369691255050981   1.0
H7   H   0.593778765297003   0.375922041517057   0.743811549828855   1.0
H8   H   0.671049653188788   0.654793519971747   0.627552636207767   1.0
H9   H   0.399609010249122   0.595619685137578   0.773843804921135   1.0
C10   C   0.533588318353111   0.529218597686331   0.666977115250965   1.0
N12   N   0.438554689214158   0.471396605465273   0.452172626185771   1.0
