data_1
_audit_creation_method   'Generated by vasp2cif'
_cell_length_a    6.20819107588
_cell_length_b    4.39299774947
_cell_length_c    7.87729750636
_cell_angle_alpha    101.234248073
_cell_angle_beta    79.5062724359
_cell_angle_gamma    93.8243125559
_symmetry_space_group_name_H-M    'P 1'
loop_
_atom_site_label
_atom_site_type_symbol
_atom_site_fract_x
_atom_site_fract_y
_atom_site_fract_z
_atom_site_occupancy
H4   H   0.304978999682753   0.744908947094437   0.498756113174103   1.0
H5   H   0.569343085822410   0.709340815119290   0.393960953518942   1.0
H6   H   0.411421443457648   0.953796303671858   0.344535643604623   1.0
H7   H   0.554180539803212   0.002944612387566   0.693375207609137   1.0
H8   H   0.664559539764475   0.229629927198061   0.531665890968029   1.0
H9   H   0.383826747813131   0.271775107531916   0.640840758308926   1.0
C10   C   0.517473885934209   0.112188549031700   0.589509344473115   1.0
N12   N   0.444964171072385   0.862213648084555   0.448361040497524   1.0
