data_1
_audit_creation_method   'Generated by vasp2cif'
_cell_length_a    6.42636055789
_cell_length_b    4.43298723901
_cell_length_c    8.04176088124
_cell_angle_alpha    106.432014474
_cell_angle_beta    85.2879842808
_cell_angle_gamma    73.3465125129
_symmetry_space_group_name_H-M    'P 1'
loop_
_atom_site_label
_atom_site_type_symbol
_atom_site_fract_x
_atom_site_fract_y
_atom_site_fract_z
_atom_site_occupancy
H4   H   0.714412753683057   0.296548593905499   0.478428748179795   1.0
H5   H   0.544144343238258   0.623624258554770   0.646678501323876   1.0
H6   H   0.724096046620183   0.671349814986158   0.500962933311669   1.0
H7   H   0.354131444811109   0.420437572022024   0.397398720492916   1.0
H8   H   0.340033026358221   0.843737057508250   0.443008463778085   1.0
H9   H   0.535691162466122   0.529437538684057   0.261594012474696   1.0
C10   C   0.448478274673683   0.587128631357551   0.394221630716942   1.0
N12   N   0.616020396824048   0.543102066620406   0.514665815046598   1.0
