data_1
_audit_creation_method   'Generated by vasp2cif'
_cell_length_a    8.09294126169
_cell_length_b    4.30225308053
_cell_length_c    5.96083145958
_cell_angle_alpha    85.3534382703
_cell_angle_beta    94.3567304552
_cell_angle_gamma    90.2568211959
_symmetry_space_group_name_H-M    'P 1'
loop_
_atom_site_label
_atom_site_type_symbol
_atom_site_fract_x
_atom_site_fract_y
_atom_site_fract_z
_atom_site_occupancy
H4   H   0.417528171817433   0.014046470360863   0.297924713385870   1.0
H5   H   0.597957446110870   0.088879250243950   0.447495774382052   1.0
H6   H   0.500376973840336   0.367740167932371   0.281190441119525   1.0
H7   H   0.362998467994110   0.043947150305030   0.692323041561346   1.0
H8   H   0.457158224924679   0.420095422758676   0.683788314505253   1.0
H9   H   0.266117827081104   0.360112583456193   0.518091607542613   1.0
C10   C   0.383683446366752   0.257179598812890   0.586917653149344   1.0
N12   N   0.480935453208979   0.175225276018637   0.392039355246348   1.0
