data_1
_audit_creation_method   'Generated by vasp2cif'
_cell_length_a    7.64352516465
_cell_length_b    4.60496238088
_cell_length_c    7.56983954502
_cell_angle_alpha    52.4179815126
_cell_angle_beta    100.045780243
_cell_angle_gamma    105.019384659
_symmetry_space_group_name_H-M    'P 1'
loop_
_atom_site_label
_atom_site_type_symbol
_atom_site_fract_x
_atom_site_fract_y
_atom_site_fract_z
_atom_site_occupancy
H4   H   0.620673055636950   0.487516591827360   0.553209301398931   1.0
H5   H   0.424819835308435   0.596361159484291   0.409233767927137   1.0
H6   H   0.427298543553749   0.312224970836155   0.692415815668598   1.0
H7   H   0.503643445563366   0.138866727511526   0.397849776649525   1.0
H8   H   0.513288234600822   0.838733262553118   0.698279782870868   1.0
H9   H   0.300932569024157   0.950028247724803   0.553305667145357   1.0
C10   C   0.447083566195854   0.048804663292692   0.549967081201982   1.0
N12   N   0.482691057689154   0.385228443183293   0.551319145540538   1.0
