data_1
_audit_creation_method   'Generated by vasp2cif'
_cell_length_a    6.09104210202
_cell_length_b    6.13489478569
_cell_length_c    6.12870565748
_cell_angle_alpha    97.9575715051
_cell_angle_beta    95.9296085144
_cell_angle_gamma    95.6315207777
_symmetry_space_group_name_H-M    'P 1'
loop_
_atom_site_label
_atom_site_type_symbol
_atom_site_fract_x
_atom_site_fract_y
_atom_site_fract_z
_atom_site_occupancy
C1   C   0.300617383721693   0.288914216115003   0.334465263460864   1.0
H2   H   0.085819014430925   0.261511620032358   0.570024487350537   1.0
H3   H   0.080621534984040   0.522294980521345   0.318754753963880   1.0
H4   H   0.547212405502002   0.083969443495476   0.309506598762709   1.0
H5   H   0.544183763151764   0.275302284528003   0.125678397839046   1.0
H6   H   0.275733008796919   0.529759370623907   0.132999804123067   1.0
H7   H   0.285221373868069   0.079303626729491   0.569049767862474   1.0
N11   N   0.212279539940042   0.197444491217127   0.496720615675535   1.0
N12   N   0.207773982931720   0.453635605579947   0.251165516535877   1.0
N13   N   0.478156380708860   0.212448538257938   0.252438538199726   1.0
