data_1
_audit_creation_method   'Generated by vasp2cif'
_cell_length_a    6.04432492925
_cell_length_b    6.08459607476
_cell_length_c    6.14413827224
_cell_angle_alpha    88.0599679292
_cell_angle_beta    94.5948702924
_cell_angle_gamma    83.5826568118
_symmetry_space_group_name_H-M    'P 1'
loop_
_atom_site_label
_atom_site_type_symbol
_atom_site_fract_x
_atom_site_fract_y
_atom_site_fract_z
_atom_site_occupancy
C1   C   0.756224847313277   0.287673397598461   0.635643289821481   1.0
H2   H   0.860448567384566   0.171746880213938   0.347657665509907   1.0
H3   H   0.003648698949206   0.462187128952685   0.533823344114182   1.0
H4   H   0.501938795497203   0.155908794923846   0.776169001301056   1.0
H5   H   0.614180797883755   0.364974471001446   0.919156685253682   1.0
H6   H   0.883284696092502   0.556744255807516   0.766259385686475   1.0
H7   H   0.667935357421705   0.022198241891161   0.465379691299525   1.0
N11   N   0.755227516649384   0.154808014389630   0.466148801640529   1.0
N12   N   0.891787643760814   0.447233094164233   0.645825140474173   1.0
N13   N   0.621978706673950   0.259086262287077   0.795537956543377   1.0
