data_1
_audit_creation_method   'Generated by vasp2cif'
_cell_length_a    9.31642287626
_cell_length_b    4.2489816076
_cell_length_c    6.29235479915
_cell_angle_alpha    76.1279619862
_cell_angle_beta    96.9866471157
_cell_angle_gamma    117.15676382
_symmetry_space_group_name_H-M    'P 1'
loop_
_atom_site_label
_atom_site_type_symbol
_atom_site_fract_x
_atom_site_fract_y
_atom_site_fract_z
_atom_site_occupancy
C1   C   0.467386896772212   0.205722615013926   0.527008122983887   1.0
H2   H   0.369404092861664   0.347335942262248   0.743043496014259   1.0
H3   H   0.576252612432732   0.566183928880164   0.731467255328212   1.0
H4   H   0.606656214333789   0.129307255753261   0.332734563893865   1.0
H5   H   0.713258872720175   0.440529635845358   0.498095224841798   1.0
H6   H   0.220471175230401   0.935174916931963   0.514358169765508   1.0
H7   H   0.320071022778876   0.827645610582579   0.347068822573860   1.0
N11   N   0.470635462202345   0.406026842302445   0.665389141447214   1.0
N12   N   0.325880198518000   0.961079017266286   0.464578345861547   1.0
N13   N   0.605890953215990   0.250780401025160   0.453223226276037   1.0
