data_1
_audit_creation_method   'Generated by vasp2cif'
_cell_length_a    6.03650571322
_cell_length_b    7.71754308027
_cell_length_c    4.30644106662
_cell_angle_alpha    105.673140709
_cell_angle_beta    107.609183501
_cell_angle_gamma    82.6577457631
_symmetry_space_group_name_H-M    'P 1'
loop_
_atom_site_label
_atom_site_type_symbol
_atom_site_fract_x
_atom_site_fract_y
_atom_site_fract_z
_atom_site_occupancy
H4   H   0.361214664866163   0.465038899547613   0.333499840444110   1.0
H5   H   0.633123248123468   0.354417616348263   0.458007136598822   1.0
H6   H   0.580540298928320   0.578161540252588   0.628206666066451   1.0
H7   H   0.308495658495375   0.329947831546309   0.678677984862707   1.0
N9   N   0.509333278478822   0.452135625046108   0.529184539194474   1.0
