data_1
_audit_creation_method   'Generated by vasp2cif'
_cell_length_a    6.00099387008
_cell_length_b    4.4051765359
_cell_length_c    7.46341020112
_cell_angle_alpha    106.855369011
_cell_angle_beta    86.0565666079
_cell_angle_gamma    91.5947710824
_symmetry_space_group_name_H-M    'P 1'
loop_
_atom_site_label
_atom_site_type_symbol
_atom_site_fract_x
_atom_site_fract_y
_atom_site_fract_z
_atom_site_occupancy
H4   H   0.503314949104222   0.914669550948183   0.372448566794773   1.0
H5   H   0.639440864581921   0.946138027092701   0.571696466888483   1.0
H6   H   0.368617075115829   0.068758623642353   0.590679014625671   1.0
H7   H   0.271428754323054   0.554590341094887   0.446700152609083   1.0
N9   N   0.485872285779649   0.905589310547938   0.511616055743005   1.0
