data_1
_audit_creation_method   'Generated by vasp2cif'
_cell_length_a    7.45381299749
_cell_length_b    4.44142770943
_cell_length_c    5.98043616913
_cell_angle_alpha    91.8162923278
_cell_angle_beta    95.0631402502
_cell_angle_gamma    72.2073972848
_symmetry_space_group_name_H-M    'P 1'
loop_
_atom_site_label
_atom_site_type_symbol
_atom_site_fract_x
_atom_site_fract_y
_atom_site_fract_z
_atom_site_occupancy
H4   H   0.431585113652979   0.370471121903257   0.603975674540102   1.0
H5   H   0.637838744356401   0.199760369430614   0.482578841725953   1.0
H6   H   0.645441682069738   0.318339373648669   0.757533305088678   1.0
H7   H   0.500390926466800   0.953293656025146   0.832942928258966   1.0
N9   N   0.571862377469799   0.225475782869296   0.631066232183471   1.0
