data_1
_audit_creation_method   'Generated by vasp2cif'
_cell_length_a    5.96059586149
_cell_length_b    4.2960655371
_cell_length_c    7.48731867314
_cell_angle_alpha    105.515734179
_cell_angle_beta    83.384891234
_cell_angle_gamma    93.4404669779
_symmetry_space_group_name_H-M    'P 1'
loop_
_atom_site_label
_atom_site_type_symbol
_atom_site_fract_x
_atom_site_fract_y
_atom_site_fract_z
_atom_site_occupancy
H4   H   0.427660973915011   0.172086228858138   0.511727981096517   1.0
H5   H   0.510890378637737   0.983293233578611   0.663964082849437   1.0
H6   H   0.226240418510158   0.996406000412814   0.642651561763627   1.0
H7   H   0.319805785330209   0.681004424589827   0.334866230162370   1.0
N9   N   0.390021424308147   0.983833329022223   0.573427627411470   1.0
