data_1
_audit_creation_method   'Generated by vasp2cif'
_cell_length_a    7.60957748141
_cell_length_b    4.31927500934
_cell_length_c    6.04278869752
_cell_angle_alpha    86.2465558254
_cell_angle_beta    75.482689301
_cell_angle_gamma    75.1529108013
_symmetry_space_group_name_H-M    'P 1'
loop_
_atom_site_label
_atom_site_type_symbol
_atom_site_fract_x
_atom_site_fract_y
_atom_site_fract_z
_atom_site_occupancy
H4   H   0.420084830915378   0.992394217350217   0.654924092684709   1.0
H5   H   0.590904370538787   0.187895271133279   0.528960596006087   1.0
H6   H   0.488401260186890   0.218642638112648   0.817804071893768   1.0
H7   H   0.662747714177677   0.763339922999272   0.875699350396623   1.0
N9   N   0.533658349160390   0.071326271904489   0.675509617591629   1.0
