data_1
_audit_creation_method   'Generated by vasp2cif'
_cell_length_a    6.22238074783
_cell_length_b    4.35293933484
_cell_length_c    7.34257020647
_cell_angle_alpha    105.268884224
_cell_angle_beta    94.7083792064
_cell_angle_gamma    81.7507395071
_symmetry_space_group_name_H-M    'P 1'
loop_
_atom_site_label
_atom_site_type_symbol
_atom_site_fract_x
_atom_site_fract_y
_atom_site_fract_z
_atom_site_occupancy
H4   H   0.231428931357271   0.087661687532055   0.545851094166672   1.0
H5   H   0.482724723788387   0.088664670143316   0.662021936867013   1.0
H6   H   0.298867201605105   0.879263956662939   0.716524491830803   1.0
H7   H   0.326992591357396   0.575669257768006   0.399656965101009   1.0
N9   N   0.355134562981583   0.955189719044675   0.607651619927438   1.0
