data_1
_audit_creation_method   'Generated by vasp2cif'
_cell_length_a    7.67604680393
_cell_length_b    4.28602407653
_cell_length_c    5.92569744316
_cell_angle_alpha    85.632511646
_cell_angle_beta    96.9259277877
_cell_angle_gamma    72.9739412522
_symmetry_space_group_name_H-M    'P 1'
loop_
_atom_site_label
_atom_site_type_symbol
_atom_site_fract_x
_atom_site_fract_y
_atom_site_fract_z
_atom_site_occupancy
H4   H   0.602997410397244   0.484174857981500   0.323516940015814   1.0
H5   H   0.619922995517378   0.492397973649382   0.614662241296273   1.0
H6   H   0.364357174045928   0.367718355810723   0.614284982149414   1.0
H7   H   0.464921185160932   0.808213814752158   0.431327774781224   1.0
N9   N   0.530837395342516   0.557730789182003   0.458742090393336   1.0
