data_1
_audit_creation_method   'Generated by vasp2cif'
_cell_length_a    6.03100665014
_cell_length_b    6.0594733099
_cell_length_c    5.99103557332
_cell_angle_alpha    81.0904722686
_cell_angle_beta    84.020857855
_cell_angle_gamma    85.5396087286
_symmetry_space_group_name_H-M    'P 1'
loop_
_atom_site_label
_atom_site_type_symbol
_atom_site_fract_x
_atom_site_fract_y
_atom_site_fract_z
_atom_site_occupancy
N5   N   0.093816526681266   0.745532715360270   0.861178934040701   1.0
N6   N   0.233701543018952   0.936784992030915   0.119731859936479   1.0
H7   H   0.222406636341631   0.626091808437550   0.866493639851974   1.0
H8   H   0.372775437528404   0.831599334826109   0.137804410432402   1.0
H9   H   0.972520358141310   0.736899102674897   0.757223663839369   1.0
H10   H   0.208281802851317   0.060510425139917   0.219085645131983   1.0
H11   H   0.937457918237165   0.027000869939897   0.977169246369783   1.0
C12   C   0.081605267612723   0.908036477301259   0.985517924263966   1.0
