data_1
_audit_creation_method   'Generated by vasp2cif'
_cell_length_a    6.02119115506
_cell_length_b    6.00938213708
_cell_length_c    6.0274019383
_cell_angle_alpha    89.0206104345
_cell_angle_beta    100.704853096
_cell_angle_gamma    92.5832774254
_symmetry_space_group_name_H-M    'P 1'
loop_
_atom_site_label
_atom_site_type_symbol
_atom_site_fract_x
_atom_site_fract_y
_atom_site_fract_z
_atom_site_occupancy
N5   N   0.140430004648565   0.808216272770487   0.037438424942117   1.0
N6   N   0.863856800166971   0.875174295154991   0.249515988166010   1.0
H7   H   0.183389393298000   0.658715355101208   0.111986285983747   1.0
H8   H   0.887627986282766   0.731157371103130   0.341629594748724   1.0
H9   H   0.230320467244987   0.863356140927728   0.918141009480408   1.0
H10   H   0.746636141628386   0.979459690210241   0.284102151134775   1.0
H11   H   0.955240916515969   0.089989946613827   0.008066880859893   1.0
C12   C   0.984933918607176   0.931445764225401   0.094849152614287   1.0
