data_1
_audit_creation_method   'Generated by vasp2cif'
_cell_length_a    5.99703988157
_cell_length_b    6.23910250298
_cell_length_c    6.13319810062
_cell_angle_alpha    100.931270258
_cell_angle_beta    99.431267847
_cell_angle_gamma    74.187141905
_symmetry_space_group_name_H-M    'P 1'
loop_
_atom_site_label
_atom_site_type_symbol
_atom_site_fract_x
_atom_site_fract_y
_atom_site_fract_z
_atom_site_occupancy
N5   N   0.915440816596949   0.694116294761962   0.983160813673834   1.0
N6   N   0.190237374125914   0.854009293379917   0.673045483789522   1.0
H7   H   0.107818517959629   0.802941255496457   0.780873994936478   1.0
H8   H   0.070905008549580   0.973876768060975   0.591767918779937   1.0
H9   H   0.846783931274828   0.555997328200853   0.960098326412052   1.0
H10   H   0.311678019003580   0.932845544250171   0.765992457570867   1.0
H11   H   0.866446888998993   0.032776488947143   0.123249264858941   1.0
C12   C   0.814239960379410   0.874976892028180   0.088480679555147   1.0
