data_1
_audit_creation_method   'Generated by vasp2cif'
_cell_length_a    6.95430480104
_cell_length_b    5.16628050275
_cell_length_c    7.84606448345
_cell_angle_alpha    90.5541433031
_cell_angle_beta    89.9676515366
_cell_angle_gamma    85.7372351802
_symmetry_space_group_name_H-M    'P 1'
loop_
_atom_site_label
_atom_site_type_symbol
_atom_site_fract_x
_atom_site_fract_y
_atom_site_fract_z
_atom_site_occupancy
C1   C   0.437470746047737   0.370566907989044   0.471315986909481   1.0
C2   C   0.562201880383370   0.736147208879757   0.633039325594879   1.0
C3   C   0.358074808076118   0.432344252833758   0.779627244096211   1.0
C4   C   0.212979521905822   0.737584753926996   0.565621876155731   1.0
H5   H   0.238837804213588   0.830121479478954   0.444579018711209   1.0
H6   H   0.182194153212301   0.881461492705711   0.666158728238997   1.0
H7   H   0.459649391152595   0.473743552995273   0.353268783930716   1.0
H8   H   0.586207777009712   0.829155532573601   0.511678200762724   1.0
H9   H   0.238654731154220   0.310427389543527   0.761454839998621   1.0
H10   H   0.322152637038350   0.579141053369611   0.877556713005539   1.0
H11   H   0.527713510973022   0.878650254217831   0.733580653119290   1.0
H12   H   0.093475802529568   0.613493693605015   0.553345890258164   1.0
H13   H   0.489710051874304   0.318624562525606   0.815107653589791   1.0
H14   H   0.568559383437297   0.255176285255445   0.505305378676020   1.0
H15   H   0.688417868901567   0.610731379895391   0.668457091560484   1.0
H16   H   0.314821301508566   0.253243282623807   0.457646239394698   1.0
N20   N   0.392691482491280   0.568996972991464   0.612744982983330   1.0
