data_1
_audit_creation_method   'Generated by vasp2cif'
_cell_length_a    6.03500205078
_cell_length_b    5.83153078875
_cell_length_c    5.95913982712
_cell_angle_alpha    92.1738930604
_cell_angle_beta    85.2390853571
_cell_angle_gamma    88.6957505267
_symmetry_space_group_name_H-M    'P 1'
loop_
_atom_site_label
_atom_site_type_symbol
_atom_site_fract_x
_atom_site_fract_y
_atom_site_fract_z
_atom_site_occupancy
H4   H   0.282697128809481   0.561345189393570   0.538479761857850   1.0
H5   H   0.510637418240378   0.683874377679622   0.435899628993560   1.0
H6   H   0.493785657132563   0.340498482972379   0.769698406049123   1.0
H7   H   0.722058854156963   0.468895890987859   0.667315300716702   1.0
H8   H   0.524189984552464   0.624487529504378   0.824472985756422   1.0
N10   N   0.448736543408828   0.531419669117163   0.491366523145146   1.0
N11   N   0.552563730616306   0.490976372678944   0.702751853778544   1.0
