data_1
_audit_creation_method   'Generated by vasp2cif'
_cell_length_a    4.15556153238
_cell_length_b    6.15463593422
_cell_length_c    7.87368368812
_cell_angle_alpha    90.8460887889
_cell_angle_beta    106.803546523
_cell_angle_gamma    89.4041667221
_symmetry_space_group_name_H-M    'P 1'
loop_
_atom_site_label
_atom_site_type_symbol
_atom_site_fract_x
_atom_site_fract_y
_atom_site_fract_z
_atom_site_occupancy
H4   H   0.234296677203545   0.484285249992985   0.465601925675051   1.0
H5   H   0.321658253758195   0.706277187558094   0.591728461235847   1.0
H6   H   0.886586479754910   0.489898381556173   0.655514305214045   1.0
H7   H   0.185224553894350   0.293891518605207   0.722648056575884   1.0
H8   H   0.231421092178199   0.534243838378419   0.827838048532653   1.0
N10   N   0.348145142951180   0.540157826039637   0.592444145202367   1.0
N11   N   0.144961013258960   0.460113583178037   0.704370222986677   1.0
