data_1
_audit_creation_method   'Generated by vasp2cif'
_cell_length_a    8.20315765765
_cell_length_b    5.8642743777
_cell_length_c    5.94138955216
_cell_angle_alpha    94.3357887594
_cell_angle_beta    47.0671672395
_cell_angle_gamma    97.8245591897
_symmetry_space_group_name_H-M    'P 1'
loop_
_atom_site_label
_atom_site_type_symbol
_atom_site_fract_x
_atom_site_fract_y
_atom_site_fract_z
_atom_site_occupancy
H4   H   0.518391738764720   0.662129920742515   0.165137353301461   1.0
H5   H   0.438587481453325   0.650199517227911   0.974129416093241   1.0
H6   H   0.754316173818573   0.392993734218479   0.873708786774131   1.0
H7   H   0.645446030082432   0.319267821331856   0.715552242290528   1.0
H8   H   0.806146593879681   0.574674631176883   0.622905280802598   1.0
N10   N   0.476233830938490   0.550678004999519   0.065434497639103   1.0
N11   N   0.684887850938594   0.454976429724745   0.799454908734937   1.0
