data_1
_audit_creation_method   'Generated by vasp2cif'
_cell_length_a    4.09662021192
_cell_length_b    6.41018860218
_cell_length_c    8.10665570773
_cell_angle_alpha    82.3956434022
_cell_angle_beta    106.746711622
_cell_angle_gamma    113.420108176
_symmetry_space_group_name_H-M    'P 1'
loop_
_atom_site_label
_atom_site_type_symbol
_atom_site_fract_x
_atom_site_fract_y
_atom_site_fract_z
_atom_site_occupancy
H4   H   0.307164409966901   0.457312596128290   0.513231805078384   1.0
H5   H   0.356807411735133   0.693291138993608   0.394673151268819   1.0
H6   H   0.650323277101982   0.466437095117691   0.324190715808228   1.0
H7   H   0.217471239099105   0.267598547952026   0.259763442954828   1.0
H8   H   0.332809568852248   0.523853443382492   0.160264932969604   1.0
N10   N   0.221675461045408   0.519740617322093   0.391974028590582   1.0
N11   N   0.370459939757431   0.439609823688208   0.278058556100760   1.0
