data_1
_audit_creation_method   'Generated by vasp2cif'
_cell_length_a    7.60319737539
_cell_length_b    6.23181433733
_cell_length_c    4.31667754437
_cell_angle_alpha    101.380824777
_cell_angle_beta    76.3400206338
_cell_angle_gamma    97.3151324586
_symmetry_space_group_name_H-M    'P 1'
loop_
_atom_site_label
_atom_site_type_symbol
_atom_site_fract_x
_atom_site_fract_y
_atom_site_fract_z
_atom_site_occupancy
H4   H   0.484605385596467   0.502689538855257   0.139974243570919   1.0
H5   H   0.615848803704957   0.731738393716853   0.080317992544757   1.0
H6   H   0.795149147238959   0.419459498923970   0.924062157494276   1.0
H7   H   0.656330795414235   0.311264266709308   0.668063596120014   1.0
H8   H   0.790230960423997   0.542906003637903   0.616285298310011   1.0
N10   N   0.559096249800838   0.588918100515123   0.966048458231057   1.0
N11   N   0.709976184549781   0.456174110648135   0.788036597529029   1.0
