data_1
_audit_creation_method   'Generated by vasp2cif'
_cell_length_a    7.37087625465
_cell_length_b    6.0877686603
_cell_length_c    4.51195429699
_cell_angle_alpha    88.6269313735
_cell_angle_beta    72.9622814849
_cell_angle_gamma    92.5187889329
_symmetry_space_group_name_H-M    'P 1'
loop_
_atom_site_label
_atom_site_type_symbol
_atom_site_fract_x
_atom_site_fract_y
_atom_site_fract_z
_atom_site_occupancy
H4   H   0.529500036155241   0.495905072298292   0.904512608538838   1.0
H5   H   0.388513973609790   0.707005913881119   0.991186122350015   1.0
H6   H   0.216150695476898   0.362760394936011   0.164511299468870   1.0
H7   H   0.364225109983707   0.321194231603691   0.384254430624665   1.0
H8   H   0.215717784651716   0.529503461775867   0.450786862558047   1.0
N10   N   0.454890883105229   0.589253881667190   0.081721006841477   1.0
N11   N   0.303363164620215   0.439573402145434   0.279603798592582   1.0
