data_1
_audit_creation_method   'Generated by vasp2cif'
_cell_length_a    7.95957358272
_cell_length_b    4.1385131817
_cell_length_c    6.07029337294
_cell_angle_alpha    91.0404800811
_cell_angle_beta    90.0644077331
_cell_angle_gamma    73.807309733
_symmetry_space_group_name_H-M    'P 1'
loop_
_atom_site_label
_atom_site_type_symbol
_atom_site_fract_x
_atom_site_fract_y
_atom_site_fract_z
_atom_site_occupancy
H4   H   0.556762156895074   0.470142576728764   0.706004372247008   1.0
H5   H   0.452607898523740   0.547636485333951   0.468688368169889   1.0
H6   H   0.802444070532198   0.561331688394582   0.567591658386760   1.0
H7   H   0.725430754937673   0.584198499565600   0.309504460838806   1.0
H8   H   0.638223065378598   0.898780485550039   0.495805239327680   1.0
N10   N   0.572162556554422   0.436399361203099   0.538444998105748   1.0
N11   N   0.689978095714081   0.638668080947339   0.474014025449016   1.0
