data_1
_audit_creation_method   'Generated by vasp2cif'
_cell_length_a    7.61419070193
_cell_length_b    4.45870576622
_cell_length_c    6.06163630978
_cell_angle_alpha    92.4295987215
_cell_angle_beta    104.351392991
_cell_angle_gamma    75.5314921312
_symmetry_space_group_name_H-M    'P 1'
loop_
_atom_site_label
_atom_site_type_symbol
_atom_site_fract_x
_atom_site_fract_y
_atom_site_fract_z
_atom_site_occupancy
H4   H   0.456878792544131   0.541888375451357   0.557334708511902   1.0
H5   H   0.576928579703328   0.795388944394851   0.654711365794675   1.0
H6   H   0.778830016453661   0.319538251442552   0.594384548134080   1.0
H7   H   0.656413988332886   0.348216890229125   0.314819598441424   1.0
H8   H   0.785708631449239   0.598457063539293   0.426487440548108   1.0
N10   N   0.530822691954135   0.680855879499809   0.509252431417700   1.0
N11   N   0.698666779683990   0.470071096773644   0.460450417295178   1.0
