data_1
_audit_creation_method   'Generated by vasp2cif'
_cell_length_a    7.74671521933
_cell_length_b    5.8941056952
_cell_length_c    4.54347252651
_cell_angle_alpha    90.3484519289
_cell_angle_beta    106.427974337
_cell_angle_gamma    74.931277373
_symmetry_space_group_name_H-M    'P 1'
loop_
_atom_site_label
_atom_site_type_symbol
_atom_site_fract_x
_atom_site_fract_y
_atom_site_fract_z
_atom_site_occupancy
H4   H   0.494386851202101   0.590170755679985   0.461184158721466   1.0
H5   H   0.463002593594581   0.616961971578988   0.801607356158151   1.0
H6   H   0.189943503429241   0.571015813570952   0.433716749462597   1.0
H7   H   0.322287336072336   0.307088606116075   0.362992519534494   1.0
H8   H   0.284232895717999   0.342725427878371   0.704173187405516   1.0
N10   N   0.482023145414843   0.496369996386100   0.640935725370248   1.0
N11   N   0.306039152168935   0.428822010786106   0.526053440075884   1.0
