data_1
_audit_creation_method   'Generated by vasp2cif'
_cell_length_a    8.0725020594
_cell_length_b    4.07470448394
_cell_length_c    5.9457145877
_cell_angle_alpha    89.7041681306
_cell_angle_beta    89.830628046
_cell_angle_gamma    77.1147416424
_symmetry_space_group_name_H-M    'P 1'
loop_
_atom_site_label
_atom_site_type_symbol
_atom_site_fract_x
_atom_site_fract_y
_atom_site_fract_z
_atom_site_occupancy
H4   H   0.566884962626517   0.458831818798458   0.659916306118966   1.0
H5   H   0.579074634467027   0.458294893529775   0.383179770014181   1.0
H6   H   0.289565229358345   0.766613720852853   0.645021253524327   1.0
H7   H   0.418553532367348   0.982236378669029   0.509700531740016   1.0
H8   H   0.298806817295045   0.762261427038325   0.362036974418267   1.0
N10   N   0.498853407571012   0.445218552351250   0.515777931420899   1.0
N11   N   0.369232740364680   0.765282081353298   0.507599011462077   1.0
