data_1
_audit_creation_method   'Generated by vasp2cif'
_cell_length_a    6.34501097357
_cell_length_b    4.15365531508
_cell_length_c    7.90205452759
_cell_angle_alpha    102.665088486
_cell_angle_beta    95.0560642522
_cell_angle_gamma    67.3083885589
_symmetry_space_group_name_H-M    'P 1'
loop_
_atom_site_label
_atom_site_type_symbol
_atom_site_fract_x
_atom_site_fract_y
_atom_site_fract_z
_atom_site_occupancy
H4   H   0.507872517403982   0.903214218155760   0.365246127733464   1.0
H5   H   0.280731051795612   0.101193080740877   0.493917486750711   1.0
H6   H   0.729931205180264   0.096019731233888   0.568997954288093   1.0
H7   H   0.497898906829214   0.460830274453187   0.549630232702000   1.0
H8   H   0.524083606923405   0.257808418493781   0.719595282421807   1.0
N10   N   0.454029656590066   0.962122502320945   0.491295073646796   1.0
N11   N   0.555050699779414   0.215220763213424   0.587883012788204   1.0
