data_1
_audit_creation_method   'Generated by vasp2cif'
_cell_length_a    7.9207438201
_cell_length_b    4.15401526474
_cell_length_c    6.17577359201
_cell_angle_alpha    92.5098102273
_cell_angle_beta    95.3514871101
_cell_angle_gamma    71.6328306036
_symmetry_space_group_name_H-M    'P 1'
loop_
_atom_site_label
_atom_site_type_symbol
_atom_site_fract_x
_atom_site_fract_y
_atom_site_fract_z
_atom_site_occupancy
H4   H   0.338287494729973   0.035391979462632   0.530138051474768   1.0
H5   H   0.502451068365714   0.954955311777298   0.725682094728925   1.0
H6   H   0.699264623586945   0.999758445513390   0.472657385491278   1.0
H7   H   0.526133653865297   0.104854028300909   0.283710797724713   1.0
H8   H   0.531936810135798   0.371953713747389   0.497617583349574   1.0
N10   N   0.473096296930032   0.918264785709486   0.562805831084819   1.0
N11   N   0.562174763206853   0.117262225138626   0.448617760183051   1.0
