data_1
_audit_creation_method   'Generated by vasp2cif'
_cell_length_a    7.37927449942
_cell_length_b    6.33825170286
_cell_length_c    4.42658598924
_cell_angle_alpha    71.0222673482
_cell_angle_beta    106.832482555
_cell_angle_gamma    105.487420544
_symmetry_space_group_name_H-M    'P 1'
loop_
_atom_site_label
_atom_site_type_symbol
_atom_site_fract_x
_atom_site_fract_y
_atom_site_fract_z
_atom_site_occupancy
N5   N   0.431403141023099   0.444767705297436   0.758037780775257   1.0
H6   H   0.309953733400773   0.436700484019179   0.571609512730179   1.0
H7   H   0.419901213522407   0.293762428649992   0.940176984597115   1.0
H8   H   0.551474109920327   0.462043042976824   0.668452337466193   1.0
H9   H   0.445380159197987   0.580519831835740   0.850941695659421   1.0
