data_1
_audit_creation_method   'Generated by vasp2cif'
_cell_length_a    5.96094749227
_cell_length_b    5.96505990191
_cell_length_c    5.97097809662
_cell_angle_alpha    82.6616432072
_cell_angle_beta    82.931517599
_cell_angle_gamma    83.0275498508
_symmetry_space_group_name_H-M    'P 1'
loop_
_atom_site_label
_atom_site_type_symbol
_atom_site_fract_x
_atom_site_fract_y
_atom_site_fract_z
_atom_site_occupancy
N5   N   0.531178042187747   0.532035128026926   0.584200558541419   1.0
H6   H   0.379229512301151   0.629383678564892   0.552196841832647   1.0
H7   H   0.497809781434725   0.382208666363042   0.685646865651918   1.0
H8   H   0.624208003009151   0.494736037743642   0.431971144204759   1.0
H9   H   0.624930638631497   0.622844426458606   0.667540875325400   1.0
