data_1
_audit_creation_method   'Generated by vasp2cif'
_cell_length_a    4.43359688512
_cell_length_b    6.3266709862
_cell_length_c    7.36384307619
_cell_angle_alpha    74.8952310971
_cell_angle_beta    73.1433511555
_cell_angle_gamma    70.9637945806
_symmetry_space_group_name_H-M    'P 1'
loop_
_atom_site_label
_atom_site_type_symbol
_atom_site_fract_x
_atom_site_fract_y
_atom_site_fract_z
_atom_site_occupancy
N5   N   0.796278747311845   0.479493476354584   0.567715859740844   1.0
H6   H   0.609892726843071   0.473334193423170   0.689443105781926   1.0
H7   H   0.979515477334239   0.329059287247809   0.580448867957024   1.0
H8   H   0.707730368810786   0.493308200861215   0.447970320034727   1.0
H9   H   0.887610988393284   0.616574480627541   0.552037114950750   1.0
