data_1
_audit_creation_method   'Generated by vasp2cif'
_cell_length_a    6.15439671102
_cell_length_b    6.31306674877
_cell_length_c    6.54948727321
_cell_angle_alpha    89.6489960864
_cell_angle_beta    90.3485092646
_cell_angle_gamma    100.523643746
_symmetry_space_group_name_H-M    'P 1'
loop_
_atom_site_label
_atom_site_type_symbol
_atom_site_fract_x
_atom_site_fract_y
_atom_site_fract_z
_atom_site_occupancy
C1   C   0.628389769152555   0.327142783124536   0.475448530969338   1.0
C2   C   0.381266442915930   0.534230196165502   0.664427654903037   1.0
C3   C   0.392554948807898   0.548608688132163   0.287583488338839   1.0
H4   H   0.724886326888182   0.323609402631767   0.614605501423760   1.0
H5   H   0.479468414152741   0.520881917718853   0.800852331675557   1.0
H6   H   0.499008462294164   0.546885983909696   0.155917252171079   1.0
H7   H   0.330540739056850   0.699016749771801   0.295274217308588   1.0
H8   H   0.320705070304676   0.685781692703578   0.661805994307940   1.0
H9   H   0.654176517650704   0.658979448789211   0.484552374813362   1.0
H10   H   0.255928117743629   0.412118697677343   0.283526387488976   1.0
H11   H   0.495619483881718   0.187044688816279   0.467303180645558   1.0
H12   H   0.244220466605114   0.398386293732258   0.654141263285730   1.0
H13   H   0.733017272886151   0.336896798216408   0.341251977829217   1.0
N17   N   0.525245460946586   0.527489154819868   0.479150526206794   1.0
