data_1
_audit_creation_method   'Generated by vasp2cif'
_cell_length_a    6.24192580431
_cell_length_b    6.27787972425
_cell_length_c    6.45512336188
_cell_angle_alpha    96.4762089465
_cell_angle_beta    87.537079471
_cell_angle_gamma    83.2422439455
_symmetry_space_group_name_H-M    'P 1'
loop_
_atom_site_label
_atom_site_type_symbol
_atom_site_fract_x
_atom_site_fract_y
_atom_site_fract_z
_atom_site_occupancy
C1   C   0.337519556619135   0.336788554760766   0.474861256224266   1.0
C2   C   0.553864387691952   0.602772363825117   0.326630654597459   1.0
C3   C   0.651159184941093   0.461612303185419   0.659721579936644   1.0
H4   H   0.198633666324810   0.393939608114351   0.390599750986617   1.0
H5   H   0.418776016460306   0.645143097060192   0.232326834141467   1.0
H6   H   0.581731298032487   0.425413308195545   0.807480564428886   1.0
H7   H   0.744653384667544   0.596525108952349   0.683499997121615   1.0
H8   H   0.636497364551907   0.742660372328380   0.372747173442129   1.0
H9   H   0.366128303179657   0.648918408047287   0.602748128455346   1.0
H10   H   0.750478778964748   0.318988286572235   0.579567240419706   1.0
H11   H   0.439588814698176   0.207054837171931   0.378070456973703   1.0
H12   H   0.667339856809711   0.473669068652562   0.241949571997473   1.0
H13   H   0.286324863407138   0.284681779869665   0.621825307498199   1.0
N17   N   0.469015654241929   0.522371804006092   0.522716401738968   1.0
