data_1
_audit_creation_method   'Generated by vasp2cif'
_cell_length_a    6.28733039555
_cell_length_b    6.42673954913
_cell_length_c    6.48495943347
_cell_angle_alpha    77.6794683697
_cell_angle_beta    86.4412866858
_cell_angle_gamma    93.224826551
_symmetry_space_group_name_H-M    'P 1'
loop_
_atom_site_label
_atom_site_type_symbol
_atom_site_fract_x
_atom_site_fract_y
_atom_site_fract_z
_atom_site_occupancy
C1   C   0.737413966507170   0.496056127426065   0.568705606128852   1.0
C2   C   0.409450011610481   0.687888419087962   0.608975505812261   1.0
C3   C   0.439773242528659   0.463189204888749   0.338617429237232   1.0
H4   H   0.815747017820399   0.604087558132761   0.652885175960293   1.0
H5   H   0.341271138360980   0.550579959213110   0.728736684317610   1.0
H6   H   0.367962120560172   0.324265656061755   0.454369591922585   1.0
H7   H   0.553429101081690   0.413776751900223   0.228104308547749   1.0
H8   H   0.501136925519795   0.797017200519569   0.683223632870181   1.0
H9   H   0.624979717863724   0.739005845177324   0.345450540073138   1.0
H10   H   0.316887357104143   0.551375317056653   0.254401137971861   1.0
H11   H   0.665755869049164   0.353435225061212   0.678813085142295   1.0
H12   H   0.284201234393585   0.769436088180925   0.522207210458120   1.0
H13   H   0.847902592050779   0.453814998827617   0.451306228436636   1.0
N17   N   0.558425663813054   0.607492531275874   0.455927205787034   1.0
