data_1
_audit_creation_method   'Generated by vasp2cif'
_cell_length_a    8.67578131548
_cell_length_b    4.8848399836
_cell_length_c    6.14160647401
_cell_angle_alpha    99.0026966131
_cell_angle_beta    96.3141432219
_cell_angle_gamma    92.1785041987
_symmetry_space_group_name_H-M    'P 1'
loop_
_atom_site_label
_atom_site_type_symbol
_atom_site_fract_x
_atom_site_fract_y
_atom_site_fract_z
_atom_site_occupancy
C1   C   0.469505237063409   0.533476551656314   0.759232150294601   1.0
C2   C   0.479580269291453   0.810432387045900   0.453012937901455   1.0
C3   C   0.670497076472223   0.453768543315448   0.490245042711941   1.0
H4   H   0.418619705852450   0.702515858545127   0.860236082704503   1.0
H5   H   0.417777537183177   0.970827948820656   0.545162576730590   1.0
H6   H   0.731789835964243   0.335408473164804   0.605904345624218   1.0
H7   H   0.754116128597857   0.568942045151068   0.414700377234794   1.0
H8   H   0.558423912524667   0.896058261956099   0.351577324493739   1.0
H9   H   0.649121886440753   0.805383624881124   0.721697552857805   1.0
H10   H   0.592922243203944   0.320131452848045   0.363165402530541   1.0
H11   H   0.377999236972123   0.401953746114792   0.652381528666496   1.0
H12   H   0.396399977583130   0.658740329806193   0.349775625756813   1.0
H13   H   0.540005664929488   0.414068173158334   0.864037527425822   1.0
N17   N   0.573370840622992   0.660831236555815   0.614798348157066   1.0
