data_1
_audit_creation_method   'Generated by vasp2cif'
_cell_length_a    6.20323878178
_cell_length_b    4.92264441266
_cell_length_c    8.56245324931
_cell_angle_alpha    91.7074931759
_cell_angle_beta    83.3780242682
_cell_angle_gamma    80.3481835912
_symmetry_space_group_name_H-M    'P 1'
loop_
_atom_site_label
_atom_site_type_symbol
_atom_site_fract_x
_atom_site_fract_y
_atom_site_fract_z
_atom_site_occupancy
C1   C   0.279646174842242   0.522761956155023   0.472490439171345   1.0
C2   C   0.579538918097327   0.795875524621948   0.495701443089089   1.0
C3   C   0.531595981423806   0.434559677301671   0.684387902704863   1.0
H4   H   0.184032625445170   0.693072780178525   0.418415868083933   1.0
H5   H   0.491839186369489   0.958524441083348   0.432163753989087   1.0
H6   H   0.413841233263504   0.316239160670286   0.741537586762888   1.0
H7   H   0.600421308089572   0.545104092363381   0.773056657450638   1.0
H8   H   0.673864193721627   0.877117246976880   0.580234319014011   1.0
H9   H   0.304201754830530   0.787400803683134   0.658891479288599   1.0
H10   H   0.662150619151092   0.303033989073256   0.608025091834712   1.0
H11   H   0.391201226614783   0.391739678324633   0.382260617879659   1.0
H12   H   0.687496024439142   0.647663342673866   0.412527686908362   1.0
H13   H   0.170953899431268   0.405013132229399   0.540052854809751   1.0
N17   N   0.414749880304996   0.644778452780656   0.583886868565678   1.0
