data_1
_audit_creation_method   'Generated by vasp2cif'
_cell_length_a    6.31824347873
_cell_length_b    6.11784232072
_cell_length_c    6.14104965615
_cell_angle_alpha    89.986885795
_cell_angle_beta    89.4751213958
_cell_angle_gamma    88.5575287085
_symmetry_space_group_name_H-M    'P 1'
loop_
_atom_site_label
_atom_site_type_symbol
_atom_site_fract_x
_atom_site_fract_y
_atom_site_fract_z
_atom_site_occupancy
H4   H   0.373452948476441   0.841541148745264   0.566197335562805   1.0
H5   H   0.667886443106873   0.571848488182347   0.298506578116275   1.0
H6   H   0.640077745015716   0.852136270238368   0.559139018440419   1.0
H7   H   0.341069848616023   0.317505278381127   0.565781385161920   1.0
H8   H   0.678364512937492   0.569719684036663   0.814557721634770   1.0
H9   H   0.397574763676097   0.590689445320038   0.858046789717470   1.0
H10   H   0.385612944140028   0.593318508925805   0.272999614266603   1.0
H11   H   0.620543628257103   0.265748702045244   0.557278549455170   1.0
C12   C   0.523819496784895   0.569073061162491   0.738355909305724   1.0
C13   C   0.516755199489161   0.570612503612558   0.384353711990357   1.0
C14   C   0.496142307913331   0.392013276551616   0.561466505947870   1.0
N16   N   0.512889535021813   0.749970215636345   0.562243219336011   1.0
