data_1
_audit_creation_method   'Generated by vasp2cif'
_cell_length_a    6.16422000604
_cell_length_b    6.13797230648
_cell_length_c    6.23632830163
_cell_angle_alpha    93.2813769716
_cell_angle_beta    85.6920644187
_cell_angle_gamma    90.7069740716
_symmetry_space_group_name_H-M    'P 1'
loop_
_atom_site_label
_atom_site_type_symbol
_atom_site_fract_x
_atom_site_fract_y
_atom_site_fract_z
_atom_site_occupancy
H4   H   0.486442113190854   0.886645809911968   0.315789324205156   1.0
H5   H   0.721016024905133   0.682521339389858   0.633541717635183   1.0
H6   H   0.419152026538569   0.897249606081758   0.582610466670076   1.0
H7   H   0.501587556553439   0.298800104778017   0.414986684167616   1.0
H8   H   0.145216477285643   0.629360841599947   0.513324912085118   1.0
H9   H   0.278077806557796   0.571193666589124   0.251055425475741   1.0
H10   H   0.752231120431823   0.614635289270034   0.349330122438438   1.0
H11   H   0.422055283935627   0.411297420673833   0.679122936863166   1.0
C12   C   0.299970679397404   0.600148257823179   0.421828056770799   1.0
C13   C   0.638675150709048   0.631593389445278   0.491227189432912   1.0
C14   C   0.464913181212353   0.448429765397982   0.512248136746457   1.0
N16   N   0.459584607408168   0.794999514947115   0.449150073598389   1.0
