data_1
_audit_creation_method   'Generated by vasp2cif'
_cell_length_a    8.3692845037
_cell_length_b    6.12138930276
_cell_length_c    4.69242117924
_cell_angle_alpha    92.6370645462
_cell_angle_beta    84.53602985
_cell_angle_gamma    86.3446311987
_symmetry_space_group_name_H-M    'P 1'
loop_
_atom_site_label
_atom_site_type_symbol
_atom_site_fract_x
_atom_site_fract_y
_atom_site_fract_z
_atom_site_occupancy
H4   H   0.404790117759724   0.996307931886712   0.945520506965252   1.0
H5   H   0.601086176388215   0.364059247990845   0.030921405102376   1.0
H6   H   0.663132686367867   0.097710724026562   0.045408304033586   1.0
H7   H   0.641528166591741   0.148540701035223   0.542557688379624   1.0
H8   H   0.513769788731707   0.394297078780610   0.524118638222312   1.0
H9   H   0.278780863096166   0.157985723900936   0.539549793786726   1.0
H10   H   0.411283180864693   0.919383360653150   0.453978027262543   1.0
H11   H   0.324381304187128   0.273176874893792   0.037256651350454   1.0
C12   C   0.539946373604600   0.224016529810946   0.446163843927650   1.0
C13   C   0.402807956748028   0.137149203586027   0.095103809909382   1.0
C14   C   0.389553104310941   0.092830159373349   0.416678164214026   1.0
N16   N   0.573792117890761   0.216870917475461   0.117910811584899   1.0
