data_1
_audit_creation_method   'Generated by vasp2cif'
_cell_length_a    8.35679777674
_cell_length_b    6.11399603985
_cell_length_c    4.68336006496
_cell_angle_alpha    89.2821349514
_cell_angle_beta    96.8108680595
_cell_angle_gamma    84.7689164622
_symmetry_space_group_name_H-M    'P 1'
loop_
_atom_site_label
_atom_site_type_symbol
_atom_site_fract_x
_atom_site_fract_y
_atom_site_fract_z
_atom_site_occupancy
H4   H   0.658607151547997   0.167193204264734   0.135829747753981   1.0
H5   H   0.313242749346657   0.116657445417687   0.937715133792615   1.0
H6   H   0.466095496086389   0.915671092428411   0.006494607453163   1.0
H7   H   0.531174738686317   0.942924553680882   0.536884342963340   1.0
H8   H   0.354332108130436   0.136176993284693   0.463864731890602   1.0
H9   H   0.521972298933640   0.444382885850786   0.599406475126443   1.0
H10   H   0.699223356473297   0.255839662366860   0.637321259318178   1.0
H11   H   0.492147878574784   0.379306503115600   0.109477032538436   1.0
C12   C   0.467795912853973   0.094562747374958   0.601603442630825   1.0
C13   C   0.552551147513562   0.244702507677829   0.002987859243433   1.0
C14   C   0.574789338242802   0.283896052984694   0.684762612617050   1.0
N16   N   0.433306380792175   0.069726931316716   0.914966734266869   1.0
