data_1
_audit_creation_method   'Generated by vasp2cif'
_cell_length_a    6.08103077928
_cell_length_b    4.36155829957
_cell_length_c    8.77634441014
_cell_angle_alpha    86.4518471396
_cell_angle_beta    90.8608116371
_cell_angle_gamma    96.7488984368
_symmetry_space_group_name_H-M    'P 1'
loop_
_atom_site_label
_atom_site_type_symbol
_atom_site_fract_x
_atom_site_fract_y
_atom_site_fract_z
_atom_site_occupancy
H4   H   0.029483554692132   0.177344117103154   0.517283406099925   1.0
H5   H   0.307140054175857   0.288612263125916   0.328118069483752   1.0
H6   H   0.383586824823347   0.632651163242671   0.391477604476095   1.0
H7   H   0.572937164484617   0.066475077646731   0.481122333833637   1.0
H8   H   0.652772563523670   0.434277901924665   0.555011213337684   1.0
H9   H   0.383481053388467   0.321544508683190   0.762915786833280   1.0
H10   H   0.297758262697547   0.951573585120508   0.697294309958022   1.0
H11   H   0.109631517072284   0.547945762522265   0.589724374322586   1.0
C12   C   0.514013137606227   0.261764568112123   0.533163202966608   1.0
C13   C   0.167493109887802   0.336003205302111   0.555745213793010   1.0
C14   C   0.340310611569723   0.194531793670661   0.661595531995815   1.0
N16   N   0.341830067138474   0.404798433183371   0.426989115502759   1.0
