data_1
_audit_creation_method   'Generated by vasp2cif'
_cell_length_a    8.72634082061
_cell_length_b    4.44315397126
_cell_length_c    6.51206568415
_cell_angle_alpha    71.8552067632
_cell_angle_beta    91.8980797351
_cell_angle_gamma    100.937885997
_symmetry_space_group_name_H-M    'P 1'
loop_
_atom_site_label
_atom_site_type_symbol
_atom_site_fract_x
_atom_site_fract_y
_atom_site_fract_z
_atom_site_occupancy
H4   H   0.552065091286913   0.494322251971383   0.759690870950429   1.0
H5   H   0.338740083655949   0.694891715389232   0.548853533945959   1.0
H6   H   0.331686841382876   0.941295740806844   0.693138922667288   1.0
H7   H   0.549567192790917   0.062881368497372   0.325787063625562   1.0
H8   H   0.502588577570059   0.352806458868265   0.437747747090178   1.0
H9   H   0.695648593015974   0.191696312477681   0.736005520691535   1.0
H10   H   0.760826594971519   0.967123805061007   0.586358558446037   1.0
H11   H   0.507939097450219   0.699809971085294   0.939130930973022   1.0
C12   C   0.533931809588076   0.116353785052070   0.474690118214653   1.0
C13   C   0.536380634504191   0.724024400458568   0.773130216585763   1.0
C14   C   0.657867007016208   0.021230876726868   0.646633735543716   1.0
N16   N   0.407099165248468   0.849854594479879   0.619976390426302   1.0
