data_1
_audit_creation_method   'Generated by vasp2cif'
_cell_length_a    6.47511602149
_cell_length_b    4.44889201664
_cell_length_c    8.98968554483
_cell_angle_alpha    107.498797297
_cell_angle_beta    96.5853084254
_cell_angle_gamma    72.7232960692
_symmetry_space_group_name_H-M    'P 1'
loop_
_atom_site_label
_atom_site_type_symbol
_atom_site_fract_x
_atom_site_fract_y
_atom_site_fract_z
_atom_site_occupancy
H4   H   0.752286137216593   0.950626278490041   0.440691282263671   1.0
H5   H   0.541912977434791   0.358337580330783   0.653175527688454   1.0
H6   H   0.687706356527428   0.612584002652767   0.659600792403580   1.0
H7   H   0.321671092234403   0.509342458405975   0.440144443366684   1.0
H8   H   0.432892348620371   0.848366234983153   0.487492070162155   1.0
H9   H   0.735230280553687   0.504218336660628   0.297691865385232   1.0
H10   H   0.585026857574917   0.213259965239132   0.230542131584933   1.0
H11   H   0.934443134812895   0.199239779741859   0.485621969327056   1.0
C12   C   0.470440808570594   0.582421953208623   0.456734929231295   1.0
C13   C   0.767996375062410   0.194433244350051   0.456364943129486   1.0
C14   C   0.644166398609023   0.369248771363445   0.334151235826077   1.0
N16   N   0.614131539775727   0.445720129301669   0.584551315843726   1.0
