data_1
_audit_creation_method   'Generated by vasp2cif'
_cell_length_a    8.75111705791
_cell_length_b    4.45940165533
_cell_length_c    6.44939925408
_cell_angle_alpha    106.703843
_cell_angle_beta    91.9056379317
_cell_angle_gamma    78.2270622875
_symmetry_space_group_name_H-M    'P 1'
loop_
_atom_site_label
_atom_site_type_symbol
_atom_site_fract_x
_atom_site_fract_y
_atom_site_fract_z
_atom_site_occupancy
H4   H   0.441945701635916   0.503417674759383   0.255995099378317   1.0
H5   H   0.653130236495954   0.699487184797491   0.466302203315344   1.0
H6   H   0.659162150656009   0.946308721734376   0.318278452501204   1.0
H7   H   0.436563008104436   0.057874731446560   0.681349293059903   1.0
H8   H   0.484538123997048   0.350520699529547   0.570963998530566   1.0
H9   H   0.299683630087841   0.195707977131313   0.262294285926714   1.0
H10   H   0.229295416636191   0.975187787863796   0.413206412305627   1.0
H11   H   0.488307198336145   0.701611237769185   0.069849073227381   1.0
C12   C   0.454670265152672   0.115886677273977   0.532719522217960   1.0
C13   C   0.457599370571607   0.729186821044927   0.236822270875599   1.0
C14   C   0.334150188333389   0.025751860660449   0.356077462946686   1.0
N16   N   0.584230057581806   0.853959152147446   0.391941847046624   1.0
