data_1
_audit_creation_method   'Generated by vasp2cif'
_cell_length_a    6.37788074466
_cell_length_b    4.46933601796
_cell_length_c    8.80389700575
_cell_angle_alpha    103.185008224
_cell_angle_beta    87.9287078677
_cell_angle_gamma    104.521246134
_symmetry_space_group_name_H-M    'P 1'
loop_
_atom_site_label
_atom_site_type_symbol
_atom_site_fract_x
_atom_site_fract_y
_atom_site_fract_z
_atom_site_occupancy
H4   H   0.268551525808874   0.542656832196641   0.558991030118001   1.0
H5   H   0.481123078405993   0.726215349266184   0.350731145546000   1.0
H6   H   0.331514054443161   0.978731156028381   0.345657613278178   1.0
H7   H   0.687532843111924   0.074540782655248   0.572836247633568   1.0
H8   H   0.580575155527796   0.373036338312644   0.524609815355007   1.0
H9   H   0.261481775918746   0.235625205317582   0.701064129524603   1.0
H10   H   0.410876801364893   0.013708040916192   0.775536363350618   1.0
H11   H   0.079016786473169   0.740868435652878   0.510676476015249   1.0
C12   C   0.540046978609503   0.140800497578823   0.552530116470088   1.0
C13   C   0.245839652890972   0.766576157059028   0.543706790549166   1.0
C14   C   0.358176437170442   0.061807860339343   0.669398385123706   1.0
N16   N   0.404213847296489   0.884346081143249   0.420119243108580   1.0
