data_1
_audit_creation_method   'Generated by vasp2cif'
_cell_length_a    8.51027547501
_cell_length_b    4.66056031714
_cell_length_c    6.30987036912
_cell_angle_alpha    74.9372189281
_cell_angle_beta    90.2717781106
_cell_angle_gamma    101.281776088
_symmetry_space_group_name_H-M    'P 1'
loop_
_atom_site_label
_atom_site_type_symbol
_atom_site_fract_x
_atom_site_fract_y
_atom_site_fract_z
_atom_site_occupancy
H4   H   0.593787261851404   0.600086650641650   0.656713806209716   1.0
H5   H   0.348108876537850   0.728528950727288   0.493557953706343   1.0
H6   H   0.322754293483506   0.906778955186937   0.685146799377094   1.0
H7   H   0.571005821040067   0.120016820880593   0.320455257801129   1.0
H8   H   0.475436628257725   0.347684778499499   0.444556005896182   1.0
H9   H   0.634060903531960   0.192663168857891   0.791644424306995   1.0
H10   H   0.768703278234952   0.101736024598978   0.615585094928726   1.0
H11   H   0.505782645043929   0.643893274831640   0.902390970332107   1.0
C12   C   0.528562619950051   0.147884174458078   0.474637604258732   1.0
C13   C   0.544384077364064   0.749540557463789   0.731325396547419   1.0
C14   C   0.643470928558621   0.076662554087214   0.664420814949388   1.0
N16   N   0.407502316901343   0.857854827570513   0.590490213568387   1.0
