data_1
_audit_creation_method   'Generated by vasp2cif'
_cell_length_a    6.07388988576
_cell_length_b    4.32605884901
_cell_length_c    8.84409705921
_cell_angle_alpha    88.9005412734
_cell_angle_beta    91.0972372942
_cell_angle_gamma    83.1360643851
_symmetry_space_group_name_H-M    'P 1'
loop_
_atom_site_label
_atom_site_type_symbol
_atom_site_fract_x
_atom_site_fract_y
_atom_site_fract_z
_atom_site_occupancy
H4   H   0.243695160755986   0.991955492840519   0.514401753688104   1.0
H5   H   0.437471514836740   0.232300050421020   0.319205554349997   1.0
H6   H   0.309654777962641   0.576807108752437   0.361064373615413   1.0
H7   H   0.719175195639945   0.251215628865186   0.508378520317881   1.0
H8   H   0.617151805499595   0.651306983812833   0.530069139985300   1.0
H9   H   0.357052751026388   0.504814948102796   0.728569930077605   1.0
H10   H   0.493698126005494   0.118915753798147   0.726893319499957   1.0
H11   H   0.087148531979615   0.362565889853056   0.535364858036896   1.0
C12   C   0.573456972546723   0.415196871366298   0.530162004943611   1.0
C13   C   0.253220789642971   0.237370323823982   0.533642093433841   1.0
C14   C   0.422022661184793   0.315357002319567   0.656377026677070   1.0
N16   N   0.391728851224587   0.374780090968100   0.409059241441011   1.0
