data_1
_audit_creation_method   'Generated by vasp2cif'
_cell_length_a    4.3791102189
_cell_length_b    6.04877655776
_cell_length_c    8.81594250793
_cell_angle_alpha    92.5447522911
_cell_angle_beta    90.0149882103
_cell_angle_gamma    96.0610817131
_symmetry_space_group_name_H-M    'P 1'
loop_
_atom_site_label
_atom_site_type_symbol
_atom_site_fract_x
_atom_site_fract_y
_atom_site_fract_z
_atom_site_occupancy
H4   H   0.868249991073328   0.987827732271544   0.188089189395207   1.0
H5   H   0.973865801980281   0.837598562721940   0.490761550717468   1.0
H6   H   0.646658106283226   0.794610521752274   0.391666357280876   1.0
H7   H   0.459764798630835   0.092681564245105   0.537673447711308   1.0
H8   H   0.838170218858053   0.172731890922519   0.606120239189449   1.0
H9   H   0.940742189936882   0.409591052416487   0.387279724322134   1.0
H10   H   0.595629377212652   0.296239342450332   0.294931534024539   1.0
H11   H   0.197315249231688   0.079165410730747   0.301001103028422   1.0
C12   C   0.699578573923493   0.123989483596687   0.505524556194693   1.0
C13   C   0.948352010533584   0.059879020603072   0.297436013014915   1.0
C14   C   0.788082156527562   0.258156531389490   0.363839614779127   1.0
N16   N   0.819361249640242   0.914399744706851   0.427911938588957   1.0
