data_1
_audit_creation_method   'Generated by vasp2cif'
_cell_length_a    8.09510731427
_cell_length_b    6.42701550777
_cell_length_c    4.71458084233
_cell_angle_alpha    86.9483092408
_cell_angle_beta    86.6553958069
_cell_angle_gamma    83.815525113
_symmetry_space_group_name_H-M    'P 1'
loop_
_atom_site_label
_atom_site_type_symbol
_atom_site_fract_x
_atom_site_fract_y
_atom_site_fract_z
_atom_site_occupancy
H4   H   0.432407652072499   0.860035160218821   0.924301535591631   1.0
H5   H   0.413420823095535   0.319127845709325   0.974973938170059   1.0
H6   H   0.590336713565762   0.150677751186777   0.957858537630493   1.0
H7   H   0.560544563487490   0.053746082984510   0.443305919290381   1.0
H8   H   0.409275594006843   0.279818495260507   0.468538872264013   1.0
H9   H   0.183428145606428   0.069076554258146   0.371181697496560   1.0
H10   H   0.323155393983413   0.836239925369490   0.427949208200168   1.0
H11   H   0.256990931238605   0.052633158701170   0.858395479841384   1.0
C12   C   0.445588503531141   0.133862814379377   0.364123096309776   1.0
C13   C   0.355939555106147   0.998332624352017   0.998850622374761   1.0
C14   C   0.307585544839874   0.990859282600788   0.320961603960974   1.0
N16   N   0.468349309626049   0.173250294870393   0.040964121950921   1.0
