data_1
_audit_creation_method   'Generated by vasp2cif'
_cell_length_a    8.21521134587
_cell_length_b    6.28523673254
_cell_length_c    4.79850057711
_cell_angle_alpha    85.58676755
_cell_angle_beta    89.1891287816
_cell_angle_gamma    79.813943349
_symmetry_space_group_name_H-M    'P 1'
loop_
_atom_site_label
_atom_site_type_symbol
_atom_site_fract_x
_atom_site_fract_y
_atom_site_fract_z
_atom_site_occupancy
H4   H   0.325152296534945   0.104953177032414   0.715659338845434   1.0
H5   H   0.522017026943679   0.433592593821579   0.807470998415077   1.0
H6   H   0.597844012331372   0.165492202195878   0.810154885005787   1.0
H7   H   0.605571254545019   0.151114552359616   0.297716487888834   1.0
H8   H   0.466035835201218   0.409779144467677   0.287863723096208   1.0
H9   H   0.232946117240537   0.199794084304692   0.301963970434009   1.0
H10   H   0.370803259782050   0.964331029941746   0.207786181599907   1.0
H11   H   0.243570690364081   0.373117029181884   0.817099365166825   1.0
C12   C   0.493705855814739   0.249773943720072   0.206577295611311   1.0
C13   C   0.330446169349372   0.223513009087632   0.866188437722727   1.0
C14   C   0.340317296084834   0.140361474301592   0.177171747668495   1.0
N16   N   0.505828795934463   0.280344517421682   0.886326898376005   1.0
