data_1
_audit_creation_method   'Generated by vasp2cif'
_cell_length_a    6.05367046346
_cell_length_b    6.71695090124
_cell_length_c    6.08423130838
_cell_angle_alpha    89.7959839031
_cell_angle_beta    79.8811415214
_cell_angle_gamma    90.1926206397
_symmetry_space_group_name_H-M    'P 1'
loop_
_atom_site_label
_atom_site_type_symbol
_atom_site_fract_x
_atom_site_fract_y
_atom_site_fract_z
_atom_site_occupancy
H4   H   0.558015230516375   0.046258031480420   0.790093929903726   1.0
H5   H   0.317818708005177   0.895288629075857   0.527066141645022   1.0
H6   H   0.263651545185702   0.522639613641687   0.490910351466432   1.0
H7   H   0.547536904374780   0.425207659369178   0.790001043442246   1.0
H8   H   0.141645926007662   0.188919496381914   0.351826045119843   1.0
C9   C   0.457984980517267   0.333830827312063   0.690872021617018   1.0
C10   C   0.340976155926470   0.050430443398867   0.558160382359425   1.0
C11   C   0.318730139071320   0.381777363595461   0.544791048671897   1.0
N13   N   0.468697576926665   0.128102065407845   0.695596099975873   1.0
N14   N   0.248297993663648   0.203185478688567   0.464470571983121   1.0
