data_1
_audit_creation_method   'Generated by vasp2cif'
_cell_length_a    6.15861572494
_cell_length_b    6.4227096619
_cell_length_c    6.14853992574
_cell_angle_alpha    96.9660282598
_cell_angle_beta    80.0518000956
_cell_angle_gamma    83.9222940359
_symmetry_space_group_name_H-M    'P 1'
loop_
_atom_site_label
_atom_site_type_symbol
_atom_site_fract_x
_atom_site_fract_y
_atom_site_fract_z
_atom_site_occupancy
H4   H   0.410600991226124   0.043589504676142   0.324278475605711   1.0
H5   H   0.653761378707159   0.997295669687868   0.617780650502249   1.0
H6   H   0.765803372132742   0.572959697684828   0.370455998965841   1.0
H7   H   0.460135741723145   0.383123793659391   0.152604159400174   1.0
H8   H   0.859830571545772   0.317830304747395   0.643400760858879   1.0
C9   C   0.545461895487248   0.335714346020934   0.280380516877424   1.0
C10   C   0.642115926401659   0.125779885127963   0.521168466120776   1.0
C11   C   0.693817079308502   0.429238281098458   0.388428408024289   1.0
N13   N   0.516020446241211   0.148217479734192   0.366202188059893   1.0
N14   N   0.751395409534719   0.295390891809289   0.536945289528622   1.0
