data_1
_audit_creation_method   'Generated by vasp2cif'
_cell_length_a    6.23545245584
_cell_length_b    6.15949884106
_cell_length_c    6.35428031546
_cell_angle_alpha    97.0423572888
_cell_angle_beta    96.0258401523
_cell_angle_gamma    98.4383442018
_symmetry_space_group_name_H-M    'P 1'
loop_
_atom_site_label
_atom_site_type_symbol
_atom_site_fract_x
_atom_site_fract_y
_atom_site_fract_z
_atom_site_occupancy
H4   H   0.192596741167236   0.447639080765875   0.642044014264179   1.0
H5   H   0.418391989558273   0.145072323560264   0.714002598580258   1.0
H6   H   0.599576081590683   0.387777436366321   0.150486787124301   1.0
H7   H   0.285326267187472   0.619720019636276   0.307979037321765   1.0
H8   H   0.659799017629958   0.113536901877595   0.416453352294163   1.0
C9   C   0.359046701675389   0.487297779537627   0.364099597093663   1.0
C10   C   0.423241542484533   0.241459064300990   0.583717868785740   1.0
C11   C   0.512950379432972   0.373370728840598   0.287045185813462   1.0
N13   N   0.305872122863221   0.401694583075070   0.547546787120105   1.0
N14   N   0.549917726722377   0.221531465057410   0.426466827901606   1.0
