data_1
_audit_creation_method   'Generated by vasp2cif'
_cell_length_a    6.0646233851
_cell_length_b    4.20163517458
_cell_length_c    9.35237184923
_cell_angle_alpha    88.2525508103
_cell_angle_beta    88.3426761608
_cell_angle_gamma    79.1394727919
_symmetry_space_group_name_H-M    'P 1'
loop_
_atom_site_label
_atom_site_type_symbol
_atom_site_fract_x
_atom_site_fract_y
_atom_site_fract_z
_atom_site_occupancy
H4   H   0.538685513593180   0.533869081152538   0.303626954717224   1.0
H5   H   0.212920104756343   0.248685794925514   0.660793699790169   1.0
H6   H   0.513172440444521   0.535322577527587   0.758338474404802   1.0
H7   H   0.740536979254671   0.721534995438610   0.515993355120550   1.0
H8   H   0.223461874562531   0.242310376332746   0.387592211227592   1.0
C9   C   0.490445892847021   0.504417229587645   0.646216411904120   1.0
C10   C   0.601426665942178   0.596445403666600   0.527326146147281   1.0
C11   C   0.331473801953969   0.348072595126716   0.454161462791028   1.0
N13   N   0.324103459551793   0.350401810315169   0.597894799422377   1.0
N14   N   0.499098437680416   0.497269548711387   0.409559192321119   1.0
