data_1
_audit_creation_method   'Generated by vasp2cif'
_cell_length_a    8.95879292831
_cell_length_b    4.24806472443
_cell_length_c    6.18560410665
_cell_angle_alpha    101.007860046
_cell_angle_beta    94.1745891097
_cell_angle_gamma    90.3066156618
_symmetry_space_group_name_H-M    'P 1'
loop_
_atom_site_label
_atom_site_type_symbol
_atom_site_fract_x
_atom_site_fract_y
_atom_site_fract_z
_atom_site_occupancy
H4   H   0.291689275363204   0.838973831278416   0.391095864955375   1.0
H5   H   0.557174740940788   0.343212623637903   0.772012576622423   1.0
H6   H   0.731212265969077   0.512649318723732   0.505485283264868   1.0
H7   H   0.553504443597525   0.856828921824771   0.248777148011030   1.0
H8   H   0.286903594384000   0.525892326655658   0.703630129136940   1.0
C9   C   0.614328534611964   0.569287007345707   0.507110240779284   1.0
C10   C   0.527177013368352   0.738727682545303   0.381020292220704   1.0
C11   C   0.382326610240924   0.573622405697648   0.618645483831685   1.0
N13   N   0.521688498957232   0.469221659042944   0.652841332282442   1.0
N14   N   0.384379103341530   0.740075719318206   0.455232562691322   1.0
