data_1
_audit_creation_method   'Generated by vasp2cif'
_cell_length_a    6.7494837726
_cell_length_b    4.27126869414
_cell_length_c    8.46527574488
_cell_angle_alpha    90.9371525059
_cell_angle_beta    86.6189414914
_cell_angle_gamma    78.2694175275
_symmetry_space_group_name_H-M    'P 1'
loop_
_atom_site_label
_atom_site_type_symbol
_atom_site_fract_x
_atom_site_fract_y
_atom_site_fract_z
_atom_site_occupancy
H4   H   0.468796579908528   0.220182558860600   0.745280821850677   1.0
H5   H   0.734394630917180   0.615518382157582   0.377284093686391   1.0
H6   H   0.468297243778864   0.039376747363754   0.250654047340404   1.0
H7   H   0.286553075560064   0.447233066429391   0.501520548328095   1.0
H8   H   0.736666870924552   0.709706072650413   0.674073206958468   1.0
C9   C   0.495264505360034   0.037553562998603   0.374696338324078   1.0
C10   C   0.407428332040112   0.239144417826999   0.497740590381397   1.0
C11   C   0.641291318050214   0.856652320100494   0.594897529202250   1.0
N13   N   0.639176349714539   0.801855315769529   0.438585177855899   1.0
N14   N   0.501160102418950   0.122234908885147   0.632946349456148   1.0
