data_1
_audit_creation_method   'Generated by vasp2cif'
_cell_length_a    6.24219168075
_cell_length_b    4.27602014193
_cell_length_c    9.62653655041
_cell_angle_alpha    113.361416904
_cell_angle_beta    97.4668967786
_cell_angle_gamma    78.9449858445
_symmetry_space_group_name_H-M    'P 1'
loop_
_atom_site_label
_atom_site_type_symbol
_atom_site_fract_x
_atom_site_fract_y
_atom_site_fract_z
_atom_site_occupancy
H4   H   0.568594069595214   0.174858252811482   0.267135148974887   1.0
H5   H   0.268613414603948   0.414269019444838   0.656062378997532   1.0
H6   H   0.552698191825549   0.824009854121449   0.734159168663268   1.0
H7   H   0.766321633261086   0.652868536734537   0.470525524309970   1.0
H8   H   0.271242987096876   0.026382406069438   0.375847307839770   1.0
C9   C   0.529899089360988   0.636879299996416   0.621254774650076   1.0
C10   C   0.633296346365668   0.554292062928049   0.491853438576285   1.0
C11   C   0.376253789245574   0.217048071967234   0.436575719889191   1.0
N13   N   0.372065644218928   0.423044626261984   0.584010965328943   1.0
N14   N   0.534551320677956   0.293116086047014   0.378794636904281   1.0
