data_1
_audit_creation_method   'Generated by vasp2cif'
_cell_length_a    8.93278430985
_cell_length_b    4.61929230014
_cell_length_c    6.62480147374
_cell_angle_alpha    81.0068745851
_cell_angle_beta    91.9791743061
_cell_angle_gamma    88.0076381381
_symmetry_space_group_name_H-M    'P 1'
loop_
_atom_site_label
_atom_site_type_symbol
_atom_site_fract_x
_atom_site_fract_y
_atom_site_fract_z
_atom_site_occupancy
C1   C   0.466786567190510   0.541210828834160   0.423722435604461   1.0
C2   C   0.417709993034116   0.706141812487992   0.594069638883560   1.0
H3   H   0.397293928682288   0.555291929998077   0.733912123181277   1.0
H4   H   0.503124212236663   0.855547874273633   0.632121427873997   1.0
H5   H   0.625234028303339   0.259401603754604   0.619099809491821   1.0
H6   H   0.704201728411498   0.541608755634279   0.485174532603104   1.0
H7   H   0.389876647962041   0.369938712696381   0.399161188436267   1.0
H8   H   0.313533391208132   0.832935386767367   0.545610307834266   1.0
H9   H   0.477319640936905   0.685954118814664   0.278465763563887   1.0
H10   H   0.651774022091558   0.266653378776965   0.366044356858175   1.0
N14   N   0.620863983995655   0.390958838410867   0.476826581631656   1.0
