data_1
_audit_creation_method   'Generated by vasp2cif'
_cell_length_a    7.23802266454
_cell_length_b    4.78549732221
_cell_length_c    8.18838145801
_cell_angle_alpha    106.805123832
_cell_angle_beta    91.0034423796
_cell_angle_gamma    84.9039298637
_symmetry_space_group_name_H-M    'P 1'
loop_
_atom_site_label
_atom_site_type_symbol
_atom_site_fract_x
_atom_site_fract_y
_atom_site_fract_z
_atom_site_occupancy
C1   C   0.580886193543354   0.475078083382744   0.493284536092026   1.0
C2   C   0.659620874651382   0.771134339539855   0.559634686002424   1.0
H3   H   0.778728824227281   0.748075204270215   0.639844077518463   1.0
H4   H   0.709320715441169   0.844252308971703   0.454826190978522   1.0
H5   H   0.465166951552752   0.549162601831753   0.265300080488012   1.0
H6   H   0.316277654927355   0.645611368375337   0.429967626837540   1.0
H7   H   0.684638545021867   0.306638590201483   0.421902182833653   1.0
H8   H   0.557694276084517   0.936681270863264   0.636836944493567   1.0
H9   H   0.523435416757879   0.405193301574815   0.595943925997671   1.0
H10   H   0.365867094743640   0.292852475609095   0.324140644619734   1.0
N14   N   0.422152428440905   0.490772392909460   0.370440573733192   1.0
