data_1
_audit_creation_method   'Generated by vasp2cif'
_cell_length_a    6.26618364946
_cell_length_b    4.45620838941
_cell_length_c    9.81829875469
_cell_angle_alpha    90.8734833974
_cell_angle_beta    84.8081369249
_cell_angle_gamma    92.0305745495
_symmetry_space_group_name_H-M    'P 1'
loop_
_atom_site_label
_atom_site_type_symbol
_atom_site_fract_x
_atom_site_fract_y
_atom_site_fract_z
_atom_site_occupancy
C1   C   0.466470046173242   0.095595416331690   0.465026679899516   1.0
C2   C   0.633178338741445   0.105221156645506   0.568794919007459   1.0
H3   H   0.741319301462873   0.917213529863879   0.553671894333405   1.0
H4   H   0.730019010138591   0.314961061309781   0.562726182091936   1.0
H5   H   0.470118052963407   0.103957528799313   0.245513074768226   1.0
H6   H   0.678060384511930   0.928813261383901   0.300140255952407   1.0
H7   H   0.366217052704385   0.890008380467172   0.470597406103913   1.0
H8   H   0.552553196244077   0.090209997163953   0.671913890929616   1.0
H9   H   0.360670621889199   0.286066986708548   0.475717902609667   1.0
H10   H   0.675547162829716   0.297162899679599   0.304974752463544   1.0
N14   N   0.576378904485487   0.106721988235016   0.320181088670744   1.0
