data_1
_audit_creation_method   'Generated by vasp2cif'
_cell_length_a    6.48879057841
_cell_length_b    4.72721011939
_cell_length_c    8.86593183115
_cell_angle_alpha    88.3247042432
_cell_angle_beta    87.3769858666
_cell_angle_gamma    78.1690842316
_symmetry_space_group_name_H-M    'P 1'
loop_
_atom_site_label
_atom_site_type_symbol
_atom_site_fract_x
_atom_site_fract_y
_atom_site_fract_z
_atom_site_occupancy
C1   C   0.449895109898369   0.530095001366582   0.507496380476989   1.0
C2   C   0.608221447128759   0.725057847129926   0.517877074878767   1.0
H3   H   0.768912162254265   0.609733217016192   0.490707005498040   1.0
H4   H   0.571434969413484   0.908278294164823   0.438885768313976   1.0
H5   H   0.593030092587965   0.313038582520551   0.309659697490905   1.0
H6   H   0.415763463436567   0.608746029032226   0.270800012180350   1.0
H7   H   0.489825491445210   0.335247940506500   0.578080009459279   1.0
H8   H   0.602103660746612   0.806262890456203   0.632451934812456   1.0
H9   H   0.289363144931575   0.641305853084651   0.537558846557716   1.0
H10   H   0.332004457853257   0.312950980042423   0.330947636189427   1.0
N14   N   0.447066639121219   0.433073840151247   0.344930347477646   1.0
