data_1
_audit_creation_method   'Generated by vasp2cif'
_cell_length_a    9.39622662598
_cell_length_b    4.46593917603
_cell_length_c    6.2968208544
_cell_angle_alpha    88.1165876931
_cell_angle_beta    90.0338090162
_cell_angle_gamma    94.3760598378
_symmetry_space_group_name_H-M    'P 1'
loop_
_atom_site_label
_atom_site_type_symbol
_atom_site_fract_x
_atom_site_fract_y
_atom_site_fract_z
_atom_site_occupancy
C1   C   0.381234907447422   0.749142193768586   0.414955470879317   1.0
C2   C   0.496002634283741   0.526677358592367   0.417402365778400   1.0
H3   H   0.490981123428775   0.391917610381811   0.274943992850345   1.0
H4   H   0.600577556126817   0.651275162983273   0.419257799183508   1.0
H5   H   0.218340615477601   0.456676405136413   0.277104768594369   1.0
H6   H   0.152486200781218   0.731140737054284   0.407704334361169   1.0
H7   H   0.384317159705630   0.881664427219901   0.557589165710493   1.0
H8   H   0.487997734206161   0.378571848499681   0.559631070791916   1.0
H9   H   0.388211973078842   0.897006154105770   0.273383342675753   1.0
H10   H   0.214646058444963   0.444662460658096   0.544170004189650   1.0
N14   N   0.232517447981847   0.585426178726878   0.410653219600580   1.0
