data_1
_audit_creation_method   'Generated by vasp2cif'
_cell_length_a    11.722025747
_cell_length_b    4.88179545658
_cell_length_c    4.81947855045
_cell_angle_alpha    90.050282266
_cell_angle_beta    90.1658767101
_cell_angle_gamma    84.8785957628
_symmetry_space_group_name_H-M    'P 1'
loop_
_atom_site_label
_atom_site_type_symbol
_atom_site_fract_x
_atom_site_fract_y
_atom_site_fract_z
_atom_site_occupancy
C1   C   0.596279030979211   0.707003368367857   0.547986832541149   1.0
C2   C   0.522355593285297   0.466916510813611   0.523559980781194   1.0
H3   H   0.536122278008989   0.326536327898118   0.699749292369262   1.0
H4   H   0.432114322711335   0.545283570477622   0.521561631289821   1.0
H5   H   0.741999546226431   0.472074584523540   0.717291762608305   1.0
H6   H   0.773028456002471   0.767866947732507   0.573146628734463   1.0
H7   H   0.584164445187177   0.848332951743039   0.372938904468917   1.0
H8   H   0.540175083184209   0.352249849139923   0.330984354644912   1.0
H9   H   0.579855248843458   0.822939014313235   0.739656125184858   1.0
H10   H   0.746908959349355   0.498260809014475   0.373180599547489   1.0
N14   N   0.722782259384807   0.606102711733698   0.552449050509487   1.0
