data_1
_audit_creation_method   'Generated by vasp2cif'
_cell_length_a    9.53122571162
_cell_length_b    4.71718057793
_cell_length_c    6.40711928186
_cell_angle_alpha    87.4463052225
_cell_angle_beta    98.3169505422
_cell_angle_gamma    107.667539019
_symmetry_space_group_name_H-M    'P 1'
loop_
_atom_site_label
_atom_site_type_symbol
_atom_site_fract_x
_atom_site_fract_y
_atom_site_fract_z
_atom_site_occupancy
C1   C   0.616435969178525   0.670737985486738   0.517902770580974   1.0
C2   C   0.482993480471592   0.589576321825689   0.638706398008232   1.0
H3   H   0.388142442441214   0.423076833242760   0.552652791180869   1.0
H4   H   0.510754557619329   0.504103230438325   0.795892704517883   1.0
H5   H   0.696513390264180   0.315380128385492   0.638341733724658   1.0
H6   H   0.758422335407197   0.454189155669411   0.411862052878739   1.0
H7   H   0.590722577183996   0.750009501755208   0.358406619576080   1.0
H8   H   0.449295570661256   0.787929542405919   0.658483683514788   1.0
H9   H   0.712889673411084   0.833145586963077   0.602544826617027   1.0
H10   H   0.581207609514315   0.239820386599646   0.403233286096672   1.0
N14   N   0.666546544040180   0.399496740688278   0.491201287214203   1.0
