data_1
_audit_creation_method   'Generated by vasp2cif'
_cell_length_a    6.52037573319
_cell_length_b    6.66081831024
_cell_length_c    7.28535631779
_cell_angle_alpha    75.4853080733
_cell_angle_beta    88.423553631
_cell_angle_gamma    87.1031557066
_symmetry_space_group_name_H-M    'P 1'
loop_
_atom_site_label
_atom_site_type_symbol
_atom_site_fract_x
_atom_site_fract_y
_atom_site_fract_z
_atom_site_occupancy
C1   C   0.671047985880996   0.665316521765604   0.390230891002211   1.0
C2   C   0.626170003586942   0.454498138078527   0.357385937784983   1.0
C3   C   0.626567686767309   0.462226431815090   0.145633095536603   1.0
H4   H   0.775976688245763   0.506417084671178   0.079355918004211   1.0
H5   H   0.594508350920890   0.310050031432184   0.125599524063432   1.0
H6   H   0.476349489383438   0.405969010288352   0.421096146477872   1.0
H7   H   0.741948128531263   0.338012248854440   0.428773518424634   1.0
H8   H   0.522826844761020   0.600888638133405   0.660222408003484   1.0
H9   H   0.682264516831999   0.796076078728007   0.630839091236922   1.0
H10   H   0.508710853371042   0.574060192713468   0.071840301998357   1.0
H11   H   0.824133848910527   0.715135345200096   0.339847109326790   1.0
H12   H   0.557552093694653   0.786613558117438   0.324870107500786   1.0
H13   H   0.778591525799669   0.553707370877326   0.671050171107687   1.0
N17   N   0.662927342275260   0.653748170347342   0.601342009331837   1.0
