data_1
_audit_creation_method   'Generated by vasp2cif'
_cell_length_a    6.45235257172
_cell_length_b    6.56688111533
_cell_length_c    7.45132316955
_cell_angle_alpha    101.443767084
_cell_angle_beta    80.6806623538
_cell_angle_gamma    88.8783641917
_symmetry_space_group_name_H-M    'P 1'
loop_
_atom_site_label
_atom_site_type_symbol
_atom_site_fract_x
_atom_site_fract_y
_atom_site_fract_z
_atom_site_occupancy
C1   C   0.397284867713694   0.684584731673986   0.613388889670404   1.0
C2   C   0.329660905936940   0.505846785773102   0.709042824841973   1.0
C3   C   0.430728542611718   0.517622315119382   0.882912501161968   1.0
H4   H   0.375853455558804   0.659363057757332   0.985855939872103   1.0
H5   H   0.391696445005863   0.383920916540916   0.946111623312198   1.0
H6   H   0.378363920425521   0.357345766988516   0.612567927734148   1.0
H7   H   0.157331030364688   0.510626391817304   0.744995500423300   1.0
H8   H   0.357846437673643   0.520929236307268   0.346838201266316   1.0
H9   H   0.360051814503720   0.779861758449712   0.362334344005163   1.0
H10   H   0.602264706936424   0.516798793851933   0.847941346527755   1.0
H11   H   0.338894664075909   0.836794556837248   0.697771655159137   1.0
H12   H   0.567978696635059   0.684589927093811   0.576015125209743   1.0
H13   H   0.147951324009092   0.674838882877651   0.456725746436149   1.0
N17   N   0.310408682231241   0.663625482267754   0.433111080228500   1.0
