data_1
_audit_creation_method   'Generated by vasp2cif'
_cell_length_a    6.65879684157
_cell_length_b    6.54359192531
_cell_length_c    6.8628579715
_cell_angle_alpha    97.393871585
_cell_angle_beta    83.1981907645
_cell_angle_gamma    93.7923839234
_symmetry_space_group_name_H-M    'P 1'
loop_
_atom_site_label
_atom_site_type_symbol
_atom_site_fract_x
_atom_site_fract_y
_atom_site_fract_z
_atom_site_occupancy
C1   C   0.507751131990240   0.565173336596423   0.613681343759502   1.0
C2   C   0.498618359200464   0.434605121206104   0.783631864983775   1.0
C3   C   0.578261250985442   0.218592203129837   0.719100102138533   1.0
H4   H   0.728790496146395   0.228269151566636   0.635801038925791   1.0
H5   H   0.590761833108239   0.140692844121375   0.847978253235240   1.0
H6   H   0.343196351177930   0.425119098167059   0.857811761549911   1.0
H7   H   0.591832263261203   0.519204736935237   0.891840141616676   1.0
H8   H   0.403947006092238   0.324133486771799   0.398622449136404   1.0
H9   H   0.374883061539094   0.563921657943474   0.347562714310087   1.0
H10   H   0.477451548414059   0.120438701364826   0.627098445027563   1.0
H11   H   0.458490374653437   0.720967799062258   0.662710570471148   1.0
H12   H   0.658998912033340   0.573146268096359   0.533625385090453   1.0
H13   H   0.218313964349157   0.466752011889533   0.522051550720022   1.0
N17   N   0.367367947015488   0.471630482284581   0.460596897609101   1.0
