data_1
_audit_creation_method   'Generated by vasp2cif'
_cell_length_a    6.73948070193
_cell_length_b    6.72162174395
_cell_length_c    6.70034739494
_cell_angle_alpha    79.3673164128
_cell_angle_beta    89.754246498
_cell_angle_gamma    83.6371302994
_symmetry_space_group_name_H-M    'P 1'
loop_
_atom_site_label
_atom_site_type_symbol
_atom_site_fract_x
_atom_site_fract_y
_atom_site_fract_z
_atom_site_occupancy
C1   C   0.584688816184418   0.587892835358623   0.357385147977176   1.0
C2   C   0.611980302452928   0.406066466409655   0.249365656783709   1.0
C3   C   0.419409672309065   0.306814067677628   0.233512642613142   1.0
H4   H   0.298730153766904   0.416732714752769   0.156670143227487   1.0
H5   H   0.445164924417931   0.183050914897009   0.148105946072192   1.0
H6   H   0.730442106817293   0.293132854652647   0.326418121922252   1.0
H7   H   0.667817899562785   0.461863923295574   0.097572614286392   1.0
H8   H   0.588847452599971   0.398102200974762   0.649573508941401   1.0
H9   H   0.357653045823426   0.494838303780611   0.570474111652615   1.0
H10   H   0.366035896727155   0.239976292963952   0.382945617457644   1.0
H11   H   0.725109071676492   0.648822965499981   0.376734815788417   1.0
H12   H   0.476385062704502   0.710275687742723   0.279987139550585   1.0
H13   H   0.512466942880444   0.642911706857340   0.652071609156906   1.0
N17   N   0.504493441793564   0.526116245516064   0.571220362886834   1.0
