data_1
_audit_creation_method   'Generated by vasp2cif'
_cell_length_a    6.66377721753
_cell_length_b    6.5382155815
_cell_length_c    6.84044621571
_cell_angle_alpha    82.9649228935
_cell_angle_beta    81.1147908416
_cell_angle_gamma    83.9762164906
_symmetry_space_group_name_H-M    'P 1'
loop_
_atom_site_label
_atom_site_type_symbol
_atom_site_fract_x
_atom_site_fract_y
_atom_site_fract_z
_atom_site_occupancy
C1   C   0.536120653511695   0.608119499201614   0.344493847608568   1.0
C2   C   0.534061312553320   0.471371767025616   0.179551086829115   1.0
C3   C   0.429355128982856   0.272142553072648   0.251218764410666   1.0
H4   H   0.273499940479724   0.307618543538190   0.324297391768908   1.0
H5   H   0.421480467339954   0.187473897304955   0.125375092668818   1.0
H6   H   0.690577208326978   0.436834622709860   0.106098113794374   1.0
H7   H   0.452339797648804   0.564603650249779   0.067482134212859   1.0
H8   H   0.824340895790549   0.486913825075433   0.427456588004276   1.0
H9   H   0.631611646575017   0.363483142178914   0.560501366358501   1.0
H10   H   0.511683653690206   0.167711776021861   0.355706140646866   1.0
H11   H   0.595429928388882   0.756661755332594   0.287940844997756   1.0
H12   H   0.385405412230725   0.634038032841673   0.430402649769221   1.0
H13   H   0.673082437558087   0.601027599189649   0.605928807954207   1.0
N17   N   0.675121094128677   0.506296458155312   0.494391093013633   1.0
