data_1
_audit_creation_method   'Generated by vasp2cif'
_cell_length_a    8.55873989218
_cell_length_b    5.11248599198
_cell_length_c    8.77575738993
_cell_angle_alpha    84.3015519575
_cell_angle_beta    121.105930049
_cell_angle_gamma    114.253397487
_symmetry_space_group_name_H-M    'P 1'
loop_
_atom_site_label
_atom_site_type_symbol
_atom_site_fract_x
_atom_site_fract_y
_atom_site_fract_z
_atom_site_occupancy
C1   C   0.902572183459770   0.544638830721389   0.391076029532880   1.0
C2   C   0.771160041478583   0.643597581739713   0.416663215801950   1.0
C3   C   0.661696234283447   0.780701696167416   0.254392811666011   1.0
H4   H   0.766196963900616   0.946814747581139   0.221301405002545   1.0
H5   H   0.584990234550020   0.879114105369584   0.281424369246013   1.0
H6   H   0.661007949381705   0.459537863596980   0.435026816072674   1.0
H7   H   0.865408273404989   0.797915658108441   0.540786994890409   1.0
H8   H   0.922126897628217   0.261524391471284   0.589913658476818   1.0
H9   H   0.123398952547109   0.578322800319059   0.664344525415355   1.0
H10   H   0.813263081643162   0.378100861946887   0.274215590252308   1.0
H11   H   0.547157235187825   0.617935111839746   0.134945547726970   1.0
H12   H   0.017787327632353   0.725342458889533   0.377580510775236   1.0
H13   H   0.091996285120669   0.327751314281741   0.528953243869732   1.0
N17   N   0.016828549689112   0.416804481009791   0.553630268358741   1.0
