data_1
_audit_creation_method   'Generated by vasp2cif'
_cell_length_a    8.77848123935
_cell_length_b    4.78113515811
_cell_length_c    9.55372525098
_cell_angle_alpha    104.846439224
_cell_angle_beta    123.09207277
_cell_angle_gamma    60.1725884567
_symmetry_space_group_name_H-M    'P 1'
loop_
_atom_site_label
_atom_site_type_symbol
_atom_site_fract_x
_atom_site_fract_y
_atom_site_fract_z
_atom_site_occupancy
C1   C   0.175618432617071   0.383653893242193   0.592651305971346   1.0
C2   C   0.250991224048596   0.630705513336195   0.616467320303942   1.0
C3   C   0.406694763363352   0.644630970469086   0.799372193913121   1.0
H4   H   0.337321731118981   0.734295559983514   0.878464808639777   1.0
H5   H   0.470444664641633   0.803118695955788   0.813401363361828   1.0
H6   H   0.315145026291314   0.571287102513043   0.535465300476826   1.0
H7   H   0.120786301333187   0.867617058397549   0.576438295042181   1.0
H8   H   0.915405059687467   0.579282887949861   0.354627594557000   1.0
H9   H   0.867695261189582   0.709207710447515   0.512872296959155   1.0
H10   H   0.252543393139080   0.156518632912463   0.545555402276375   1.0
H11   H   0.533166650191231   0.407059713553596   0.847225076085072   1.0
H12   H   0.193557191314479   0.336440595769288   0.707973218730916   1.0
H13   H   0.897954702557672   0.339239452471979   0.439469445311055   1.0
N17   N   0.949603742700328   0.508817795801236   0.466670894167114   1.0
