data_1
_audit_creation_method   'Generated by vasp2cif'
_cell_length_a    8.73918418936
_cell_length_b    4.98782582381
_cell_length_c    8.02039289539
_cell_angle_alpha    86.7364159949
_cell_angle_beta    116.225753559
_cell_angle_gamma    79.399402278
_symmetry_space_group_name_H-M    'P 1'
loop_
_atom_site_label
_atom_site_type_symbol
_atom_site_fract_x
_atom_site_fract_y
_atom_site_fract_z
_atom_site_occupancy
C1   C   0.186658221383866   0.381634085599096   0.675846223373568   1.0
C2   C   0.284338595961295   0.582593483612534   0.639036299274260   1.0
C3   C   0.416267360270197   0.653515244744838   0.823885812748713   1.0
H4   H   0.515193945806637   0.468770957766310   0.913659515161392   1.0
H5   H   0.352339628382680   0.746213317772245   0.904592390489491   1.0
H6   H   0.352662052292338   0.492723374651305   0.561791134227420   1.0
H7   H   0.188529943003566   0.769387536521080   0.546985694448338   1.0
H8   H   0.115926416458649   0.224636645060414   0.416721263188407   1.0
H9   H   0.965740891370800   0.497243613098597   0.405724011955421   1.0
H10   H   0.275558535304604   0.186710679501069   0.760084450592572   1.0
H11   H   0.485091849447542   0.798315668786152   0.795711014443505   1.0
H12   H   0.111904038031113   0.466490102260053   0.747477510433043   1.0
H13   H   0.979530020546342   0.193231957108161   0.511226153917761   1.0
N17   N   0.054864901024565   0.316725493842910   0.491773268632265   1.0
