data_1
_audit_creation_method   'Generated by vasp2cif'
_cell_length_a    6.42763250614
_cell_length_b    6.49480136448
_cell_length_c    10.3481974529
_cell_angle_alpha    59.757808458
_cell_angle_beta    123.600060476
_cell_angle_gamma    95.3446357481
_symmetry_space_group_name_H-M    'P 1'
loop_
_atom_site_label
_atom_site_type_symbol
_atom_site_fract_x
_atom_site_fract_y
_atom_site_fract_z
_atom_site_occupancy
C1   C   0.884586187106279   0.600241686054012   0.382246348588339   1.0
C2   C   0.710449189537108   0.772614737294433   0.364149811893789   1.0
C3   C   0.550425275563533   0.002265081712210   0.166828561950233   1.0
H4   H   0.677074599837560   0.102134251661774   0.132915660838833   1.0
H5   H   0.426769638225174   0.125242553440962   0.154189438526906   1.0
H6   H   0.583822736733794   0.674799927119501   0.400063858739671   1.0
H7   H   0.829373212808704   0.828163441416955   0.462147086815030   1.0
H8   H   0.965610824625386   0.294465313724643   0.636172420805984   1.0
H9   H   0.194307425824704   0.445000553158316   0.665744002807251   1.0
H10   H   0.773446513419024   0.520343011796584   0.300789499193755   1.0
H11   H   0.427956261788317   0.953691934331815   0.065124350182444   1.0
H12   H   0.007703872267108   0.693445305009135   0.341215090032627   1.0
H13   H   0.173227724851486   0.257807236586657   0.594413954963223   1.0
N17   N   0.066730201991916   0.384153555378823   0.582505396006141   1.0
