data_1
_audit_creation_method   'Generated by vasp2cif'
_cell_length_a    6.89222364136
_cell_length_b    7.36108510982
_cell_length_c    6.7177052557
_cell_angle_alpha    80.6380915878
_cell_angle_beta    96.0672984232
_cell_angle_gamma    109.467027738
_symmetry_space_group_name_H-M    'P 1'
loop_
_atom_site_label
_atom_site_type_symbol
_atom_site_fract_x
_atom_site_fract_y
_atom_site_fract_z
_atom_site_occupancy
C1   C   0.200415267090634   0.668494012162114   0.528580697107401   1.0
C2   C   0.433929915480348   0.278366008258587   0.423114253599230   1.0
C3   C   0.336320605919198   0.439454827811105   0.384255425669636   1.0
C4   C   0.292636824696366   0.502740980093890   0.577828587299493   1.0
H5   H   0.739971504348546   0.470454980292494   0.427605582041558   1.0
H6   H   0.720716941338544   0.244007111834904   0.533229566485936   1.0
H7   H   0.654693074087817   0.391000361896758   0.661184092708247   1.0
H8   H   0.311882891483428   0.800311518025602   0.455597147794727   1.0
H9   H   0.065257737194244   0.630149042749188   0.423109273303702   1.0
H10   H   0.155075697198818   0.702376437717511   0.664924156004666   1.0
H11   H   0.191172402582133   0.385284118997085   0.295000754558217   1.0
H12   H   0.434043989977546   0.565416860942335   0.288499585215504   1.0
H13   H   0.186387914117624   0.376898253888662   0.666906845501742   1.0
H14   H   0.433989560511975   0.550437079718208   0.674651429600338   1.0
H15   H   0.349072768900605   0.154141875480200   0.527358470602273   1.0
H16   H   0.450549148495412   0.228060871030031   0.283874128019541   1.0
N20   N   0.651663529153780   0.351783623993029   0.519475426286974   1.0
