data_1
_audit_creation_method   'Generated by vasp2cif'
_cell_length_a    6.81491086626
_cell_length_b    6.69264158551
_cell_length_c    6.59361010586
_cell_angle_alpha    80.1499048219
_cell_angle_beta    84.8607606369
_cell_angle_gamma    90.9558729696
_symmetry_space_group_name_H-M    'P 1'
loop_
_atom_site_label
_atom_site_type_symbol
_atom_site_fract_x
_atom_site_fract_y
_atom_site_fract_z
_atom_site_occupancy
C1   C   0.442801996137774   0.642579362080980   0.356493830988192   1.0
C2   C   0.604857209897787   0.749211781152383   0.447453181476725   1.0
C3   C   0.534093784652015   0.836646194686345   0.638855332048230   1.0
H4   H   0.428893719742142   0.954348973767488   0.595893362126226   1.0
H5   H   0.459838352937695   0.720076338203924   0.759331669548978   1.0
H6   H   0.655880898799083   0.905469549204788   0.702092076816122   1.0
H7   H   0.871857552646517   0.659066477930928   0.580215671799358   1.0
H8   H   0.680488271584480   0.866885577625879   0.329540326664862   1.0
H9   H   0.330398285389720   0.751771169271528   0.311115998516037   1.0
H10   H   0.371922413156575   0.517361146722550   0.470233088711701   1.0
H11   H   0.499574324214706   0.582376571282573   0.219414471584521   1.0
H12   H   0.834177486528752   0.549397112522627   0.376334402174493   1.0
H13   H   0.705484720346313   0.469471912251855   0.607285981557098   1.0
N17   N   0.765403934012049   0.595721462015540   0.505919314293600   1.0
