data_1
_audit_creation_method   'Generated by vasp2cif'
_cell_length_a    8.16479187547
_cell_length_b    4.87000988387
_cell_length_c    8.03958853877
_cell_angle_alpha    96.0297756849
_cell_angle_beta    98.4472658802
_cell_angle_gamma    108.039066158
_symmetry_space_group_name_H-M    'P 1'
loop_
_atom_site_label
_atom_site_type_symbol
_atom_site_fract_x
_atom_site_fract_y
_atom_site_fract_z
_atom_site_occupancy
C1   C   0.677708893162976   0.903551186766421   0.625688441487787   1.0
C2   C   0.575418595610345   0.576083673446989   0.582545909284856   1.0
C3   C   0.475665818887821   0.463403125932750   0.721521074924639   1.0
H4   H   0.567970930203254   0.491847978667647   0.840088874914156   1.0
H5   H   0.396405888705666   0.232274082333463   0.687863173084817   1.0
H6   H   0.388318213338640   0.587493089786757   0.746713345224420   1.0
H7   H   0.497577844166133   0.598646424271527   0.317909368655303   1.0
H8   H   0.663354494643747   0.455129542779581   0.554264860545700   1.0
H9   H   0.739395495392007   0.988108398995935   0.521505036614801   1.0
H10   H   0.591074741495259   0.023676555689036   0.658979027559184   1.0
H11   H   0.781768816091930   0.942111426512070   0.736659513804402   1.0
H12   H   0.379965403138179   0.289951575972177   0.375853272509570   1.0
H13   H   0.341431553307943   0.599478361739539   0.431505001756114   1.0
N17   N   0.440442238732207   0.511669610151005   0.415814428867702   1.0
