data_1
_audit_creation_method   'Generated by vasp2cif'
_cell_length_a    8.5809147446
_cell_length_b    4.85667489561
_cell_length_c    8.01388012262
_cell_angle_alpha    108.248178779
_cell_angle_beta    78.7890703018
_cell_angle_gamma    108.277178253
_symmetry_space_group_name_H-M    'P 1'
loop_
_atom_site_label
_atom_site_type_symbol
_atom_site_fract_x
_atom_site_fract_y
_atom_site_fract_z
_atom_site_occupancy
C1   C   0.661153339424843   0.342468071561761   0.351129618256863   1.0
C2   C   0.602118915404724   0.106209558991239   0.455442242628806   1.0
C3   C   0.729036975282220   0.135014735859109   0.573805120575400   1.0
H4   H   0.844047171846256   0.107202378560636   0.493077875928918   1.0
H5   H   0.686618736910553   0.968400556702022   0.649199640170778   1.0
H6   H   0.757245857992451   0.359301720170016   0.667622558029251   1.0
H7   H   0.351239842635451   0.136016157158735   0.502024876118433   1.0
H8   H   0.568380599213292   0.880775961254130   0.364567800510578   1.0
H9   H   0.709205975564522   0.566050966803047   0.438353509084131   1.0
H10   H   0.761854838460948   0.286052551378233   0.251792449516955   1.0
H11   H   0.564147666124235   0.344826983825570   0.281652676808655   1.0
H12   H   0.392009284053827   0.963154048599698   0.632559436480335   1.0
H13   H   0.458105313287938   0.335841408851131   0.674758095791240   1.0
N17   N   0.440301625388685   0.136679749183642   0.573059584192400   1.0
