data_1
_audit_creation_method   'Generated by vasp2cif'
_cell_length_a    8.00194949775
_cell_length_b    4.67593851434
_cell_length_c    8.41596933326
_cell_angle_alpha    75.414098713
_cell_angle_beta    77.5468626392
_cell_angle_gamma    88.6995697295
_symmetry_space_group_name_H-M    'P 1'
loop_
_atom_site_label
_atom_site_type_symbol
_atom_site_fract_x
_atom_site_fract_y
_atom_site_fract_z
_atom_site_occupancy
C1   C   0.572594379345645   0.015015856162819   0.308800853538571   1.0
C2   C   0.549470939074382   0.991755317603619   0.496666674381544   1.0
C3   C   0.681724483526274   0.179173606591036   0.535038368769591   1.0
H4   H   0.808366241648102   0.091695098554183   0.500338042711839   1.0
H5   H   0.658658545313585   0.172970826723372   0.668554431330008   1.0
H6   H   0.683854602564168   0.409268947746938   0.461718593845781   1.0
H7   H   0.352379572166846   0.082304852811262   0.693007515681032   1.0
H8   H   0.553177339632654   0.762256418254864   0.567615799465315   1.0
H9   H   0.473063827166449   0.891997005673318   0.280284277568846   1.0
H10   H   0.572210358112493   0.246028033711376   0.237448621705333   1.0
H11   H   0.696419363033243   0.925823515111105   0.263808556799049   1.0
H12   H   0.339624392817043   0.292754877473321   0.503312484946328   1.0
H13   H   0.275419592610156   0.941608716274843   0.557192298538226   1.0
N17   N   0.368088400644474   0.083715151247944   0.567506715675492   1.0
