data_1
_audit_creation_method   'Generated by vasp2cif'
_cell_length_a    6.99575284632
_cell_length_b    4.59426557436
_cell_length_c    9.29018786237
_cell_angle_alpha    85.1873830963
_cell_angle_beta    83.6109419329
_cell_angle_gamma    96.4756367318
_symmetry_space_group_name_H-M    'P 1'
loop_
_atom_site_label
_atom_site_type_symbol
_atom_site_fract_x
_atom_site_fract_y
_atom_site_fract_z
_atom_site_occupancy
C1   C   0.475125004306051   0.575449892381535   0.650229288974792   1.0
C2   C   0.437200067846327   0.435641871886013   0.511577502440268   1.0
C3   C   0.322828883143210   0.614969337951059   0.413863569109218   1.0
H4   H   0.191515374224281   0.661038120883276   0.478765347854541   1.0
H5   H   0.280865668937224   0.498529364491084   0.322494484695689   1.0
H6   H   0.406787417390071   0.825768808938612   0.369262813318649   1.0
H7   H   0.614242327495738   0.296315220205031   0.331892148263869   1.0
H8   H   0.362606331733545   0.212285912833465   0.538667656580969   1.0
H9   H   0.560203847413526   0.445794564422648   0.716763833368368   1.0
H10   H   0.552218629156933   0.798371940097290   0.626276483962513   1.0
H11   H   0.336493542905004   0.589356921196632   0.714676907136273   1.0
H12   H   0.716398628502013   0.597413703272956   0.391293867165608   1.0
H13   H   0.715423996788815   0.275041575381245   0.488723939505718   1.0
N17   N   0.633130598681660   0.396346266470246   0.426193937380816   1.0
