data_1
_audit_creation_method   'Generated by vasp2cif'
_cell_length_a    6.61498858744
_cell_length_b    6.58042928382
_cell_length_c    6.5605139208
_cell_angle_alpha    82.5304549082
_cell_angle_beta    99.6495635923
_cell_angle_gamma    96.0281450113
_symmetry_space_group_name_H-M    'P 1'
loop_
_atom_site_label
_atom_site_type_symbol
_atom_site_fract_x
_atom_site_fract_y
_atom_site_fract_z
_atom_site_occupancy
H4   H   0.505647601427549   0.656491791634666   0.383747636278996   1.0
H5   H   0.713160018054411   0.394398979632303   0.322765596545975   1.0
H6   H   0.650168292402781   0.563315354795885   0.602606925256077   1.0
H7   H   0.204314358254356   0.440541636943163   0.480273326684116   1.0
H8   H   0.362979902703781   0.346825114121181   0.715548991967748   1.0
H9   H   0.310920900503743   0.612284752092128   0.669323294022767   1.0
H10   H   0.442979565090884   0.324268059901958   0.260292417982760   1.0
H11   H   0.584948577482072   0.216446468060160   0.499876910357777   1.0
C12   C   0.335114277613138   0.478413702143780   0.598143981803989   1.0
C13   C   0.570149034390154   0.351867287749801   0.385301297132172   1.0
N15   N   0.524003505818374   0.527791034184546   0.492621425929938   1.0
