data_1
_audit_creation_method   'Generated by vasp2cif'
_cell_length_a    6.58769317716
_cell_length_b    6.58313942946
_cell_length_c    6.57875475646
_cell_angle_alpha    84.3684437126
_cell_angle_beta    99.6237391899
_cell_angle_gamma    97.894247706
_symmetry_space_group_name_H-M    'P 1'
loop_
_atom_site_label
_atom_site_type_symbol
_atom_site_fract_x
_atom_site_fract_y
_atom_site_fract_z
_atom_site_occupancy
H4   H   0.352563168844265   0.577436464480010   0.278855402252342   1.0
H5   H   0.651731306972265   0.402523352180304   0.278444964805532   1.0
H6   H   0.551693203067161   0.669467571048420   0.449616282243881   1.0
H7   H   0.188456943484924   0.371731028485084   0.544124884077016   1.0
H8   H   0.402994772356980   0.462378050152126   0.731983236018409   1.0
H9   H   0.234100978510616   0.638328276861028   0.594092048433181   1.0
H10   H   0.440577594318115   0.230086322537962   0.360235379204591   1.0
H11   H   0.651521086645064   0.328303857191750   0.547888767750187   1.0
C12   C   0.305880135261080   0.500723358183660   0.585910233408447   1.0
C13   C   0.555778195446969   0.361403728308552   0.399610597979117   1.0
N15   N   0.442739147793500   0.541977347219167   0.419217446079464   1.0
