data_1
_audit_creation_method   'Generated by vasp2cif'
_cell_length_a    6.60392337262
_cell_length_b    6.59677093068
_cell_length_c    6.55945953389
_cell_angle_alpha    81.4352926584
_cell_angle_beta    99.1321609505
_cell_angle_gamma    96.1095068571
_symmetry_space_group_name_H-M    'P 1'
loop_
_atom_site_label
_atom_site_type_symbol
_atom_site_fract_x
_atom_site_fract_y
_atom_site_fract_z
_atom_site_occupancy
H4   H   0.525036396971845   0.653773588697704   0.378140589108851   1.0
H5   H   0.667020581026904   0.357307986160262   0.294665751866916   1.0
H6   H   0.657915748728360   0.529710685126776   0.589618043455147   1.0
H7   H   0.201286850370870   0.491946205254185   0.483802465236147   1.0
H8   H   0.347622899529490   0.363947103655409   0.711005693648319   1.0
H9   H   0.347221217992493   0.638730861506322   0.674621753799400   1.0
H10   H   0.391448628692450   0.339300994816866   0.245896090077708   1.0
H11   H   0.520858754636571   0.198171750619418   0.475459553822081   1.0
C12   C   0.340306163987649   0.502584663430548   0.597461003244224   1.0
C13   C   0.526573810958501   0.339062775597778   0.365325630464492   1.0
N15   N   0.524458844013173   0.519381187716003   0.482916567436827   1.0
