data_1
_audit_creation_method   'Generated by vasp2cif'
_cell_length_a    6.62094288751
_cell_length_b    4.63444588887
_cell_length_c    8.96243794412
_cell_angle_alpha    88.0261080106
_cell_angle_beta    83.3492865316
_cell_angle_gamma    82.0600373147
_symmetry_space_group_name_H-M    'P 1'
loop_
_atom_site_label
_atom_site_type_symbol
_atom_site_fract_x
_atom_site_fract_y
_atom_site_fract_z
_atom_site_occupancy
H4   H   0.322446937945899   0.277470154844235   0.540723059191167   1.0
H5   H   0.623329686452069   0.481550415422777   0.424219616716855   1.0
H6   H   0.487473027196072   0.801747713424755   0.402388869636479   1.0
H7   H   0.551145931037680   0.490071485593430   0.694646460315439   1.0
H8   H   0.670961795595380   0.796342761148732   0.622499058672515   1.0
H9   H   0.399063918115933   0.836811970883041   0.679220257198598   1.0
H10   H   0.299690184131382   0.412655646136789   0.351772366046824   1.0
H11   H   0.172726207834303   0.619060462515750   0.509080912703442   1.0
C12   C   0.532005232602227   0.692797585737075   0.629257790894792   1.0
C13   C   0.307898495804168   0.469978968527481   0.467458956117228   1.0
N15   N   0.495866242304669   0.619386957477351   0.472025139877163   1.0
