data_1
_audit_creation_method   'Generated by vasp2cif'
_cell_length_a    6.61857603898
_cell_length_b    4.64919336894
_cell_length_c    8.909803995
_cell_angle_alpha    92.8830041183
_cell_angle_beta    84.2459081478
_cell_angle_gamma    98.0721431533
_symmetry_space_group_name_H-M    'P 1'
loop_
_atom_site_label
_atom_site_type_symbol
_atom_site_fract_x
_atom_site_fract_y
_atom_site_fract_z
_atom_site_occupancy
H4   H   0.677790874338150   0.265295286554562   0.437658387801434   1.0
H5   H   0.376054490400911   0.474022589656549   0.553169832072363   1.0
H6   H   0.519546742228549   0.782430086568553   0.590444327471403   1.0
H7   H   0.459342228524484   0.503951916874655   0.285044933777627   1.0
H8   H   0.357992085483566   0.822113201802395   0.361303162927122   1.0
H9   H   0.629776786984145   0.830419838862952   0.314467230513706   1.0
H10   H   0.683838530187231   0.365458578080457   0.635458981256825   1.0
H11   H   0.830035448493064   0.591028565320102   0.495419730369029   1.0
C12   C   0.487549219875888   0.699715531668595   0.356604301382909   1.0
C13   C   0.689201825684492   0.443505313829057   0.521744079120623   1.0
N15   N   0.509125130793024   0.607474765029828   0.514087374575944   1.0
