data_1
_audit_creation_method   'Generated by vasp2cif'
_cell_length_a    8.40640003317
_cell_length_b    4.73380408821
_cell_length_c    7.4835113805
_cell_angle_alpha    103.344482598
_cell_angle_beta    95.6953196643
_cell_angle_gamma    103.929506044
_symmetry_space_group_name_H-M    'P 1'
loop_
_atom_site_label
_atom_site_type_symbol
_atom_site_fract_x
_atom_site_fract_y
_atom_site_fract_z
_atom_site_occupancy
H4   H   0.411831161030264   0.608825804132714   0.329297679515470   1.0
H5   H   0.539725837542534   0.015831619354351   0.615106643219093   1.0
H6   H   0.600384706627644   0.250288382191407   0.487974312277395   1.0
H7   H   0.250171240122512   0.930798844262320   0.501884491566969   1.0
H8   H   0.348068793252693   0.325154997745926   0.591087125781478   1.0
H9   H   0.303980874281876   0.153743000224274   0.343652249078886   1.0
H10   H   0.634445335810192   0.753675505798526   0.356356868337286   1.0
H11   H   0.500325806297113   0.864459829209913   0.201861790498903   1.0
C12   C   0.339285365621670   0.124385015616234   0.480592829382978   1.0
C13   C   0.514511202089466   0.800916567996445   0.332081350877821   1.0
N15   N   0.507839616790996   0.061927973007592   0.488927897024588   1.0
