data_1
_audit_creation_method   'Generated by vasp2cif'
_cell_length_a    6.72923255168
_cell_length_b    4.74208354877
_cell_length_c    8.52575823078
_cell_angle_alpha    77.668313047
_cell_angle_beta    86.4289922694
_cell_angle_gamma    81.7356297126
_symmetry_space_group_name_H-M    'P 1'
loop_
_atom_site_label
_atom_site_type_symbol
_atom_site_fract_x
_atom_site_fract_y
_atom_site_fract_z
_atom_site_occupancy
H4   H   0.335514058696326   0.143670686023867   0.548075665624744   1.0
H5   H   0.647229059053402   0.373001739415741   0.498406648939003   1.0
H6   H   0.518292821195331   0.674529775698289   0.401486066177853   1.0
H7   H   0.462482092327470   0.390620795150198   0.747263712246209   1.0
H8   H   0.561300979680702   0.724357134506690   0.671731705446135   1.0
H9   H   0.300069159742208   0.700080527975757   0.647662379716394   1.0
H10   H   0.411717663926616   0.244850979207371   0.339038351232951   1.0
H11   H   0.213785796261156   0.464733084317615   0.425301682946760   1.0
C12   C   0.452988218997625   0.586202325330319   0.652427830669779   1.0
C13   C   0.355265888849935   0.321672005520966   0.447151531402717   1.0
N15   N   0.505962915596385   0.495298235275676   0.493433126233541   1.0
