data_1
_audit_creation_method   'Generated by vasp2cif'
_cell_length_a    6.63296938534
_cell_length_b    6.60212878902
_cell_length_c    6.58846465222
_cell_angle_alpha    89.8266951126
_cell_angle_beta    98.8098703495
_cell_angle_gamma    82.0148036432
_symmetry_space_group_name_H-M    'P 1'
loop_
_atom_site_label
_atom_site_type_symbol
_atom_site_fract_x
_atom_site_fract_y
_atom_site_fract_z
_atom_site_occupancy
C1   C   0.367760682589193   0.413103159102704   0.593120896848376   1.0
C2   C   0.515979603899169   0.516078950965223   0.493010571632404   1.0
H3   H   0.688879015690588   0.498068466886046   0.256576797118093   1.0
H4   H   0.677309382349982   0.762822670774376   0.511413945432771   1.0
H5   H   0.351895602261415   0.262592990055524   0.530079308109691   1.0
H6   H   0.216334776400025   0.507858981470726   0.568280785405285   1.0
H7   H   0.419875079563248   0.396776972807281   0.758946221810760   1.0
H8   H   0.522830401417870   0.745983637626914   0.698940923462480   1.0
H9   H   0.542105227244150   0.302426305496127   0.272291300313654   1.0
N13   N   0.585528337382222   0.435749847047042   0.328712154094049   1.0
N14   N   0.573179614825122   0.688234326546961   0.569680252682844   1.0
