data_1
_audit_creation_method   'Generated by vasp2cif'
_cell_length_a    6.64249393519
_cell_length_b    6.61167787061
_cell_length_c    6.61654939546
_cell_angle_alpha    90.0085595414
_cell_angle_beta    98.722936198
_cell_angle_gamma    98.6726552518
_symmetry_space_group_name_H-M    'P 1'
loop_
_atom_site_label
_atom_site_type_symbol
_atom_site_fract_x
_atom_site_fract_y
_atom_site_fract_z
_atom_site_occupancy
C1   C   0.635099845710435   0.508476733814142   0.525552225115973   1.0
C2   C   0.494974927310203   0.615265160882970   0.630666197457785   1.0
H3   H   0.327923536446157   0.596302377982909   0.870834474310612   1.0
H4   H   0.328859659098732   0.856330574446055   0.611180884544716   1.0
H5   H   0.745539694549095   0.444253234097495   0.637189446509304   1.0
H6   H   0.719167343803839   0.612589266376276   0.428558674874402   1.0
H7   H   0.542412998054346   0.382468179098552   0.429240819897551   1.0
H8   H   0.480388592233553   0.841288051000149   0.421789737025691   1.0
H9   H   0.478691008840670   0.406034774917906   0.856302363284584   1.0
N13   N   0.432046589795554   0.536977506903902   0.798801811328353   1.0
N14   N   0.432945508416957   0.783804010650968   0.552248967600399   1.0
