data_1
_audit_creation_method   'Generated by vasp2cif'
_cell_length_a    6.60679205044
_cell_length_b    6.5893371641
_cell_length_c    6.54486266797
_cell_angle_alpha    85.4752782222
_cell_angle_beta    98.4753283733
_cell_angle_gamma    89.3743259737
_symmetry_space_group_name_H-M    'P 1'
loop_
_atom_site_label
_atom_site_type_symbol
_atom_site_fract_x
_atom_site_fract_y
_atom_site_fract_z
_atom_site_occupancy
C1   C   0.571681701303945   0.471432888485445   0.428449142228246   1.0
C2   C   0.514340980898240   0.626729190510574   0.566078033449692   1.0
H3   H   0.326469031139368   0.685355807200423   0.781255362800650   1.0
H4   H   0.588150335857797   0.905863607770684   0.672890736131215   1.0
H5   H   0.593417876242874   0.544234213798845   0.277544775411926   1.0
H6   H   0.454922089311289   0.356459689609537   0.407159181515240   1.0
H7   H   0.716966940948311   0.396462699217302   0.499690888829086   1.0
H8   H   0.725905072026613   0.828756447946191   0.485034004671611   1.0
H9   H   0.292701123293490   0.454283049998921   0.672413701674458   1.0
N13   N   0.370273268467564   0.586368182646268   0.683532063979186   1.0
N14   N   0.611954693907805   0.801492144954771   0.571088301717815   1.0
