data_1
_audit_creation_method   'Generated by vasp2cif'
_cell_length_a    6.79766241603
_cell_length_b    4.5357662288
_cell_length_c    8.94105709099
_cell_angle_alpha    90.0734118399
_cell_angle_beta    95.6513212448
_cell_angle_gamma    102.550374251
_symmetry_space_group_name_H-M    'P 1'
loop_
_atom_site_label
_atom_site_type_symbol
_atom_site_fract_x
_atom_site_fract_y
_atom_site_fract_z
_atom_site_occupancy
C1   C   0.426006658992442   0.873506843955610   0.604818387851800   1.0
C2   C   0.539040295000000   0.820944916593575   0.475275353729238   1.0
H3   H   0.395864621101502   0.072236329561626   0.331734957203054   1.0
H4   H   0.571779568489987   0.908366580043904   0.252276926028365   1.0
H5   H   0.333184570507655   0.658655133613500   0.636962748099137   1.0
H6   H   0.532405898748081   0.964294101230777   0.702360125004567   1.0
H7   H   0.326747284714273   0.028331782339194   0.575425434446259   1.0
H8   H   0.757579841903528   0.608607124307603   0.409732417233997   1.0
H9   H   0.709689824694152   0.565186774126985   0.595379920707302   1.0
N13   N   0.506650779519525   0.951832049802647   0.345754532110988   1.0
N14   N   0.670558125235914   0.641223507721001   0.492148190004343   1.0
