data_1
_audit_creation_method   'Generated by vasp2cif'
_cell_length_a    6.74450743081
_cell_length_b    4.53769501781
_cell_length_c    9.5870677923
_cell_angle_alpha    108.362815205
_cell_angle_beta    78.7085329977
_cell_angle_gamma    91.964799343
_symmetry_space_group_name_H-M    'P 1'
loop_
_atom_site_label
_atom_site_type_symbol
_atom_site_fract_x
_atom_site_fract_y
_atom_site_fract_z
_atom_site_occupancy
C1   C   0.476514634185556   0.527606718852681   0.639003464390555   1.0
C2   C   0.472651549887999   0.319973105238724   0.483754030981935   1.0
H3   H   0.354702785625420   0.262094944538717   0.294762905721441   1.0
H4   H   0.255487889704192   0.576369816098413   0.450179715588192   1.0
H5   H   0.454520544557504   0.392539530920580   0.716770406124709   1.0
H6   H   0.625116399778314   0.632710238420998   0.641910131530828   1.0
H7   H   0.360237802746752   0.711804738512889   0.675722261155990   1.0
H8   H   0.600273808576681   0.922865695630705   0.321735734363173   1.0
H9   H   0.694167935236543   0.031268182367015   0.487327990180475   1.0
N13   N   0.357172143410686   0.395194774516682   0.402330294020985   1.0
N14   N   0.588900563100403   0.062984471108692   0.429773186651765   1.0
