data_1
_audit_creation_method   'Generated by vasp2cif'
_cell_length_a    8.27325497194
_cell_length_b    4.47840653688
_cell_length_c    7.59123670823
_cell_angle_alpha    90.5096060086
_cell_angle_beta    92.7930590284
_cell_angle_gamma    79.2267522496
_symmetry_space_group_name_H-M    'P 1'
loop_
_atom_site_label
_atom_site_type_symbol
_atom_site_fract_x
_atom_site_fract_y
_atom_site_fract_z
_atom_site_occupancy
C1   C   0.616706763182270   0.901454683218046   0.515908177682995   1.0
C2   C   0.490748531645172   0.713802410318399   0.460095579955424   1.0
H3   H   0.370733728999492   0.776514653847387   0.689742617612571   1.0
H4   H   0.288992330530178   0.547090501382151   0.536250258620701   1.0
H5   H   0.729257392345631   0.749843042099538   0.564969400003446   1.0
H6   H   0.648336396255952   0.027615732669027   0.404079173524717   1.0
H7   H   0.573380437167321   0.057845962546714   0.621982359109682   1.0
H8   H   0.413385799054248   0.461351892262666   0.252943966391316   1.0
H9   H   0.581686619585240   0.622291975452033   0.214417121185888   1.0
N13   N   0.380082480127467   0.665420969386091   0.571653658852641   1.0
N14   N   0.495367830205976   0.590426610664737   0.300166814292360   1.0
