data_1
_audit_creation_method   'Generated by vasp2cif'
_cell_length_a    6.49388449539
_cell_length_b    6.32348766406
_cell_length_c    6.40828916913
_cell_angle_alpha    89.9773479029
_cell_angle_beta    92.1050488359
_cell_angle_gamma    89.8487212647
_symmetry_space_group_name_H-M    'P 1'
loop_
_atom_site_label
_atom_site_type_symbol
_atom_site_fract_x
_atom_site_fract_y
_atom_site_fract_z
_atom_site_occupancy
H4   H   0.549742194863491   0.500765397158879   0.289868636144611   1.0
H5   H   0.632406050131614   0.370373001854034   0.502119283512670   1.0
H6   H   0.626873870657796   0.635356139000656   0.501114723926719   1.0
H7   H   0.256046155609610   0.352563309125649   0.472938103462987   1.0
H8   H   0.340387055045923   0.498233489381008   0.700489182336163   1.0
H9   H   0.249000134124458   0.636539313628369   0.470580165610606   1.0
C10   C   0.330362382760576   0.496778512810678   0.530303912040765   1.0
N12   N   0.547795986929586   0.501152353945791   0.451140026446744   1.0
