data_1
_audit_creation_method   'Generated by vasp2cif'
_cell_length_a    6.39580373909
_cell_length_b    6.37875432782
_cell_length_c    6.48928854219
_cell_angle_alpha    86.7973117494
_cell_angle_beta    85.8877145142
_cell_angle_gamma    92.3018819194
_symmetry_space_group_name_H-M    'P 1'
loop_
_atom_site_label
_atom_site_type_symbol
_atom_site_fract_x
_atom_site_fract_y
_atom_site_fract_z
_atom_site_occupancy
H4   H   0.318642294094857   0.361824519923900   0.482700141645133   1.0
H5   H   0.556002248780906   0.411932375314319   0.358772783835838   1.0
H6   H   0.389947036395454   0.604196042491992   0.379465473753187   1.0
H7   H   0.588057252530370   0.385009591364684   0.731986908371920   1.0
H8   H   0.658715915551450   0.645572452803809   0.624334113646198   1.0
H9   H   0.405265914897740   0.590034484452154   0.757771947721567   1.0
C10   C   0.530897294597473   0.527905418811979   0.659557190475958   1.0
N12   N   0.442338583531256   0.472647146173065   0.457314906921021   1.0
