data_1
_audit_creation_method   'Generated by vasp2cif'
_cell_length_a    6.71863668034
_cell_length_b    4.67951995915
_cell_length_c    8.3815892993
_cell_angle_alpha    103.612811301
_cell_angle_beta    79.2614005862
_cell_angle_gamma    94.5611377874
_symmetry_space_group_name_H-M    'P 1'
loop_
_atom_site_label
_atom_site_type_symbol
_atom_site_fract_x
_atom_site_fract_y
_atom_site_fract_z
_atom_site_occupancy
H4   H   0.321574160733199   0.751048006899779   0.495414609003660   1.0
H5   H   0.565520805084461   0.727009991185341   0.394995804737185   1.0
H6   H   0.414136998795932   0.952840327063832   0.355326701248529   1.0
H7   H   0.548680335960952   0.006580312198636   0.683944311763717   1.0
H8   H   0.647363473021571   0.224030220280412   0.536591710907551   1.0
H9   H   0.387427798311833   0.255154194172881   0.640716295646143   1.0
C10   C   0.513012546194624   0.108366320734952   0.588816686249380   1.0
N12   N   0.448640092051058   0.868177549927033   0.450325768025756   1.0
