data_1
_audit_creation_method   'Generated by vasp2cif'
_cell_length_a    6.93736779531
_cell_length_b    4.71750589412
_cell_length_c    8.51071499365
_cell_angle_alpha    106.352442044
_cell_angle_beta    84.9222725193
_cell_angle_gamma    73.2296805387
_symmetry_space_group_name_H-M    'P 1'
loop_
_atom_site_label
_atom_site_type_symbol
_atom_site_fract_x
_atom_site_fract_y
_atom_site_fract_z
_atom_site_occupancy
H4   H   0.696637445300006   0.314860791388107   0.481588391989533   1.0
H5   H   0.533902567446169   0.624838336412658   0.637101995957934   1.0
H6   H   0.705617128236383   0.668363927568429   0.502076496464497   1.0
H7   H   0.366818433271668   0.429370321228646   0.397660521383678   1.0
H8   H   0.355824546780546   0.826238572506576   0.437145837916390   1.0
H9   H   0.542716718905837   0.523113643418206   0.270228486570886   1.0
C10   C   0.455922320037850   0.583933963310947   0.394777600876203   1.0
N12   N   0.605293691263064   0.546836527123922   0.513033623316467   1.0
