data_1
_audit_creation_method   'Generated by vasp2cif'
_cell_length_a    8.67799325293
_cell_length_b    4.57174642154
_cell_length_c    6.40442781539
_cell_angle_alpha    86.4752782962
_cell_angle_beta    95.1261152509
_cell_angle_gamma    91.1782283156
_symmetry_space_group_name_H-M    'P 1'
loop_
_atom_site_label
_atom_site_type_symbol
_atom_site_fract_x
_atom_site_fract_y
_atom_site_fract_z
_atom_site_occupancy
H4   H   0.425042879831835   0.020517835344179   0.305495481714651   1.0
H5   H   0.591203943686544   0.104279952122219   0.450857535859086   1.0
H6   H   0.498267976197930   0.359110155580446   0.295634604228944   1.0
H7   H   0.368557458958236   0.046018259037751   0.669869808101978   1.0
H8   H   0.452626318924672   0.405853501923886   0.669379690912542   1.0
H9   H   0.276711180947565   0.336971965338698   0.507807500021279   1.0
C10   C   0.386892074648614   0.247792070644266   0.574975756623246   1.0
N12   N   0.481256307037015   0.177236083168374   0.396389380814853   1.0
