data_1
_audit_creation_method   'Generated by vasp2cif'
_cell_length_a    8.42559334162
_cell_length_b    4.75686001354
_cell_length_c    8.00108097274
_cell_angle_alpha    53.6578557379
_cell_angle_beta    100.202476277
_cell_angle_gamma    106.566442395
_symmetry_space_group_name_H-M    'P 1'
loop_
_atom_site_label
_atom_site_type_symbol
_atom_site_fract_x
_atom_site_fract_y
_atom_site_fract_z
_atom_site_occupancy
H4   H   0.616371974492820   0.512692094440252   0.552177397037414   1.0
H5   H   0.438121178754423   0.624492555449050   0.423623448189230   1.0
H6   H   0.442428615776255   0.358333751506894   0.686948955848019   1.0
H7   H   0.484335878933726   0.171259481296389   0.405357572885593   1.0
H8   H   0.497524455368616   0.889243910785263   0.684924014035091   1.0
H9   H   0.304915272842489   0.005011854643527   0.557981970714214   1.0
C10   C   0.439458916955251   0.092948524769506   0.550101007226195   1.0
N12   N   0.488097311982794   0.421197814587433   0.553515715811472   1.0
