data_1
_audit_creation_method   'Generated by vasp2cif'
_cell_length_a    9.87247305966
_cell_length_b    4.47526901432
_cell_length_c    6.69760730232
_cell_angle_alpha    76.0884610594
_cell_angle_beta    96.9148669483
_cell_angle_gamma    116.904809563
_symmetry_space_group_name_H-M    'P 1'
loop_
_atom_site_label
_atom_site_type_symbol
_atom_site_fract_x
_atom_site_fract_y
_atom_site_fract_z
_atom_site_occupancy
C1   C   0.467563760801667   0.208462417134342   0.526734181105809   1.0
H2   H   0.375206017246477   0.350768408345559   0.724979841712852   1.0
H3   H   0.569617391270150   0.555531973524040   0.714435319427508   1.0
H4   H   0.599144396733067   0.126218154187853   0.349739843910292   1.0
H5   H   0.699192307989925   0.432272303022827   0.496987036776986   1.0
H6   H   0.234917110479870   0.956431491364327   0.512849113796037   1.0
H7   H   0.328766031073130   0.842915835545483   0.363099776108342   1.0
N11   N   0.470214918344340   0.411588892473475   0.648620107468801   1.0
N12   N   0.334402696816845   0.971221544592410   0.472786807256760   1.0
N13   N   0.598222538360851   0.244854455865095   0.461161666178462   1.0
