data_1
_audit_creation_method   'Generated by vasp2cif'
_cell_length_a    6.22321337392
_cell_length_b    6.43916593448
_cell_length_c    6.37184985174
_cell_angle_alpha    100.973094198
_cell_angle_beta    85.4778038526
_cell_angle_gamma    89.0945929843
_symmetry_space_group_name_H-M    'P 1'
loop_
_atom_site_label
_atom_site_type_symbol
_atom_site_fract_x
_atom_site_fract_y
_atom_site_fract_z
_atom_site_occupancy
H4   H   0.336761122563342   0.508709230183580   0.383449137217084   1.0
H5   H   0.608518456348818   0.546242343954496   0.363253044949028   1.0
H6   H   0.458916857836739   0.650478979231951   0.597838864067974   1.0
H7   H   0.388620703145095   0.265499304689371   0.569250005061039   1.0
N9   N   0.475906718147091   0.524884898030329   0.466659778184121   1.0
