data_1
_audit_creation_method   'Generated by vasp2cif'
_cell_length_a    6.39890888501
_cell_length_b    4.66960727486
_cell_length_c    8.07722751298
_cell_angle_alpha    106.351421397
_cell_angle_beta    87.2093014499
_cell_angle_gamma    91.6151961628
_symmetry_space_group_name_H-M    'P 1'
loop_
_atom_site_label
_atom_site_type_symbol
_atom_site_fract_x
_atom_site_fract_y
_atom_site_fract_z
_atom_site_occupancy
H4   H   0.498174951381103   0.912650668669251   0.379792296226469   1.0
H5   H   0.626783086769400   0.948314028293019   0.566475390987833   1.0
H6   H   0.370864490493936   0.053027134687774   0.579100668098356   1.0
H7   H   0.287454625592957   0.564123031606066   0.448453040204903   1.0
N9   N   0.483083905388796   0.903885520496701   0.508368748957658   1.0
