data_1
_audit_creation_method   'Generated by vasp2cif'
_cell_length_a    8.08073385544
_cell_length_b    4.69545656562
_cell_length_c    6.39158040845
_cell_angle_alpha    89.8855262212
_cell_angle_beta    92.488755043
_cell_angle_gamma    72.6829939166
_symmetry_space_group_name_H-M    'P 1'
loop_
_atom_site_label
_atom_site_type_symbol
_atom_site_fract_x
_atom_site_fract_y
_atom_site_fract_z
_atom_site_occupancy
H4   H   0.438459764364481   0.371452086386974   0.612639311720429   1.0
H5   H   0.626848854197583   0.217544565063939   0.487536696804632   1.0
H6   H   0.637001174758872   0.313047384788099   0.745286674114652   1.0
H7   H   0.503069708325377   0.961042193397986   0.819569761171152   1.0
N9   N   0.567189380506264   0.233404051174240   0.629895961811712   1.0
