data_1
_audit_creation_method   'Generated by vasp2cif'
_cell_length_a    6.39065011005
_cell_length_b    4.59021106895
_cell_length_c    8.15558546746
_cell_angle_alpha    105.717286903
_cell_angle_beta    86.4490922258
_cell_angle_gamma    92.901926695
_symmetry_space_group_name_H-M    'P 1'
loop_
_atom_site_label
_atom_site_type_symbol
_atom_site_fract_x
_atom_site_fract_y
_atom_site_fract_z
_atom_site_occupancy
H4   H   0.457948197226052   0.105372208761779   0.488907394889679   1.0
H5   H   0.488098771311513   0.981971588603379   0.662025869149900   1.0
H6   H   0.237736879310425   0.039409134242575   0.613229407902871   1.0
H7   H   0.348125825885866   0.655141905859807   0.348823042640632   1.0
N9   N   0.388097292434693   0.973436001980787   0.564244816551700   1.0
