data_1
_audit_creation_method   'Generated by vasp2cif'
_cell_length_a    8.25832682179
_cell_length_b    4.60928108996
_cell_length_c    6.59799676643
_cell_angle_alpha    88.0584080498
_cell_angle_beta    74.4371935589
_cell_angle_gamma    74.9612287128
_symmetry_space_group_name_H-M    'P 1'
loop_
_atom_site_label
_atom_site_type_symbol
_atom_site_fract_x
_atom_site_fract_y
_atom_site_fract_z
_atom_site_occupancy
H4   H   0.444577663359397   0.950609896903792   0.633373209245534   1.0
H5   H   0.602586738473200   0.139064835398365   0.534496488015947   1.0
H6   H   0.471299233338186   0.210554285732762   0.786348827823872   1.0
H7   H   0.621871619259572   0.821364246666207   0.890001271711419   1.0
N9   N   0.536239269453752   0.046205749660786   0.667321840386499   1.0
