data_1
_audit_creation_method   'Generated by vasp2cif'
_cell_length_a    6.73468200865
_cell_length_b    4.63123415568
_cell_length_c    8.05364811055
_cell_angle_alpha    105.180930956
_cell_angle_beta    103.354938312
_cell_angle_gamma    77.8762075611
_symmetry_space_group_name_H-M    'P 1'
loop_
_atom_site_label
_atom_site_type_symbol
_atom_site_fract_x
_atom_site_fract_y
_atom_site_fract_z
_atom_site_occupancy
H4   H   0.216432263999962   0.065245066891350   0.554028370400459   1.0
H5   H   0.460946856463721   0.074932054062586   0.673837818406000   1.0
H6   H   0.309925188813345   0.856248157820829   0.712623720150539   1.0
H7   H   0.323904958539479   0.586393490296672   0.422212733233124   1.0
N9   N   0.345811911651019   0.940436899957625   0.616634217718641   1.0
