data_1
_audit_creation_method   'Generated by vasp2cif'
_cell_length_a    8.26754522282
_cell_length_b    4.60040965956
_cell_length_c    6.37009491477
_cell_angle_alpha    89.3112132546
_cell_angle_beta    92.260058217
_cell_angle_gamma    73.4427873138
_symmetry_space_group_name_H-M    'P 1'
loop_
_atom_site_label
_atom_site_type_symbol
_atom_site_fract_x
_atom_site_fract_y
_atom_site_fract_z
_atom_site_occupancy
H4   H   0.556360119412389   0.513625327760145   0.301715843679141   1.0
H5   H   0.625163676861185   0.568157202990193   0.548564048051297   1.0
H6   H   0.463102008163446   0.336321245841461   0.679131567741955   1.0
H7   H   0.434598305996630   0.793705142636263   0.449608535550617   1.0
N9   N   0.517895710342252   0.577752212432252   0.453387094742652   1.0
