data_1
_audit_creation_method   'Generated by vasp2cif'
_cell_length_a    6.45771509712
_cell_length_b    6.46912523381
_cell_length_c    6.40940611205
_cell_angle_alpha    82.9607021504
_cell_angle_beta    85.1610905317
_cell_angle_gamma    85.610098606
_symmetry_space_group_name_H-M    'P 1'
loop_
_atom_site_label
_atom_site_type_symbol
_atom_site_fract_x
_atom_site_fract_y
_atom_site_fract_z
_atom_site_occupancy
N5   N   0.094828542681199   0.755283722396236   0.868735931593839   1.0
N6   N   0.226320164058670   0.931106238019709   0.120530230918426   1.0
H7   H   0.213212015046317   0.641437467735877   0.871684449164164   1.0
H8   H   0.354668217983892   0.830803740506013   0.138931916313716   1.0
H9   H   0.982115360127573   0.749818858513237   0.767820802321843   1.0
H10   H   0.204929109252099   0.048681630827836   0.214317096061166   1.0
H11   H   0.953191519611515   0.021750086906437   0.979411148065147   1.0
C12   C   0.085514355741189   0.907532878286197   0.989045149123022   1.0
