data_1
_audit_creation_method   'Generated by vasp2cif'
_cell_length_a    6.4374987837
_cell_length_b    6.41926107064
_cell_length_c    6.46946389967
_cell_angle_alpha    87.4335950411
_cell_angle_beta    97.6518177327
_cell_angle_gamma    93.0813340499
_symmetry_space_group_name_H-M    'P 1'
loop_
_atom_site_label
_atom_site_type_symbol
_atom_site_fract_x
_atom_site_fract_y
_atom_site_fract_z
_atom_site_occupancy
N5   N   0.140756602841558   0.800466006596843   0.055132639149510   1.0
N6   N   0.870797351854332   0.888365770487026   0.237897517724186   1.0
H7   H   0.173645639419748   0.666557220348418   0.141010600462290   1.0
H8   H   0.884872746751835   0.761450976471675   0.338893615912180   1.0
H9   H   0.231384982025439   0.839047090754136   0.939846199921575   1.0
H10   H   0.759211158544925   0.990752790347416   0.254380887836402   1.0
H11   H   0.969751803011118   0.063313967410003   0.990599963442192   1.0
C12   C   0.992576310034258   0.923482476454247   0.090380265419566   1.0
