data_1
_audit_creation_method   'Generated by vasp2cif'
_cell_length_a    6.39749744124
_cell_length_b    6.59463218288
_cell_length_c    6.51426092871
_cell_angle_alpha    101.033266867
_cell_angle_beta    96.7572695304
_cell_angle_gamma    76.5166245628
_symmetry_space_group_name_H-M    'P 1'
loop_
_atom_site_label
_atom_site_type_symbol
_atom_site_fract_x
_atom_site_fract_y
_atom_site_fract_z
_atom_site_occupancy
N5   N   0.908326369363863   0.701707801026657   0.962303869945472   1.0
N6   N   0.187244444422909   0.847637661046711   0.680196142842924   1.0
H7   H   0.096325977966416   0.797698974442532   0.772914853647833   1.0
H8   H   0.087147689767328   0.953622468945817   0.596202996415421   1.0
H9   H   0.853557994924408   0.567233548879848   0.963681044028995   1.0
H10   H   0.290693233876233   0.928414684032660   0.776096708597507   1.0
H11   H   0.865483447952094   0.023541741419848   0.072072700933262   1.0
C12   C   0.819538267120514   0.873333800708160   0.064929545698227   1.0
