data_1
_audit_creation_method   'Generated by vasp2cif'
_cell_length_a    7.36997351823
_cell_length_b    5.14062605463
_cell_length_c    8.57225465314
_cell_angle_alpha    91.491462789
_cell_angle_beta    90.1138729256
_cell_angle_gamma    85.5540529946
_symmetry_space_group_name_H-M    'P 1'
loop_
_atom_site_label
_atom_site_type_symbol
_atom_site_fract_x
_atom_site_fract_y
_atom_site_fract_z
_atom_site_occupancy
C1   C   0.432227954259155   0.372351476028520   0.478246079518982   1.0
C2   C   0.556861575835576   0.735075248325714   0.629214156456584   1.0
C3   C   0.364543000985158   0.432844477554454   0.762382321236863   1.0
C4   C   0.225078630502210   0.743815330111204   0.572534330523752   1.0
H5   H   0.246441617807300   0.834969980802285   0.461495529001361   1.0
H6   H   0.200195321630552   0.888922743158879   0.666440875886920   1.0
H7   H   0.451783072007657   0.476675661286649   0.371208313551804   1.0
H8   H   0.577727393434358   0.829379228837389   0.518992710344740   1.0
H9   H   0.250964584750406   0.311799390168531   0.745713540343971   1.0
H10   H   0.332335195766788   0.579920539546549   0.854134076749148   1.0
H11   H   0.527958194775273   0.877562742681967   0.723910274157419   1.0
H12   H   0.110671815909967   0.621954123115664   0.563041534510170   1.0
H13   H   0.489220835871564   0.317079513772342   0.792272148064924   1.0
H14   H   0.555632890015239   0.252816359568989   0.505907372855965   1.0
H15   H   0.676067050279968   0.606486479224081   0.657866371078626   1.0
H16   H   0.314842775630396   0.257656135676356   0.465823396539982   1.0
N20   N   0.394829826862733   0.570890029868451   0.610927501883594   1.0
