data_1
_audit_creation_method   'Generated by vasp2cif'
_cell_length_a    6.44609249688
_cell_length_b    6.25431566996
_cell_length_c    6.42644021097
_cell_angle_alpha    90.7179862817
_cell_angle_beta    85.7234218761
_cell_angle_gamma    89.7482638914
_symmetry_space_group_name_H-M    'P 1'
loop_
_atom_site_label
_atom_site_type_symbol
_atom_site_fract_x
_atom_site_fract_y
_atom_site_fract_z
_atom_site_occupancy
H4   H   0.294707990996201   0.564551289822717   0.547058796168741   1.0
H5   H   0.511122718219397   0.675719535021273   0.447527743456796   1.0
H6   H   0.490766901531814   0.356422419768151   0.766132606708737   1.0
H7   H   0.705755634101372   0.477901966599113   0.668877185749501   1.0
H8   H   0.523851064334998   0.620940620128373   0.811791736538403   1.0
N10   N   0.449043651862262   0.535035063309302   0.504240372827162   1.0
N11   N   0.547403776383476   0.497388105535400   0.701118803802395   1.0
