data_1
_audit_creation_method   'Generated by vasp2cif'
_cell_length_a    8.74203671741
_cell_length_b    6.29049343914
_cell_length_c    6.37151982678
_cell_angle_alpha    93.4835582679
_cell_angle_beta    47.323287269
_cell_angle_gamma    95.1680114381
_symmetry_space_group_name_H-M    'P 1'
loop_
_atom_site_label
_atom_site_type_symbol
_atom_site_fract_x
_atom_site_fract_y
_atom_site_fract_z
_atom_site_occupancy
H4   H   0.534907148060014   0.660353959287946   0.138164362161092   1.0
H5   H   0.446188704640512   0.646703272442721   0.977178026728147   1.0
H6   H   0.754029855786776   0.396928584637486   0.861923735881021   1.0
H7   H   0.644717808373933   0.337916899850995   0.724974585336653   1.0
H8   H   0.794233213348633   0.568403291929904   0.635267015813639   1.0
N10   N   0.491198383868046   0.555754771418833   0.053900946958308   1.0
N11   N   0.684406294277508   0.460703917779625   0.799975739642498   1.0
