data_1
_audit_creation_method   'Generated by vasp2cif'
_cell_length_a    4.36471322511
_cell_length_b    6.65120550809
_cell_length_c    8.65402185542
_cell_angle_alpha    83.037595575
_cell_angle_beta    105.847673568
_cell_angle_gamma    105.640004992
_symmetry_space_group_name_H-M    'P 1'
loop_
_atom_site_label
_atom_site_type_symbol
_atom_site_fract_x
_atom_site_fract_y
_atom_site_fract_z
_atom_site_occupancy
H4   H   0.254216148904334   0.454031826469617   0.489500585587990   1.0
H5   H   0.275178523835251   0.676283075886822   0.378501652865893   1.0
H6   H   0.584610515250752   0.478993983921036   0.304442826292252   1.0
H7   H   0.246124622040810   0.277112547065933   0.274792032205958   1.0
H8   H   0.244391391740450   0.494945271477413   0.154797578622798   1.0
N10   N   0.172938876278572   0.517759925846470   0.376135754338115   1.0
N11   N   0.328681653874178   0.438561637808775   0.272059376518733   1.0
