data_1
_audit_creation_method   'Generated by vasp2cif'
_cell_length_a    8.37757961948
_cell_length_b    6.79114768107
_cell_length_c    4.56133782268
_cell_angle_alpha    108.263221926
_cell_angle_beta    74.2856961578
_cell_angle_gamma    103.231235473
_symmetry_space_group_name_H-M    'P 1'
loop_
_atom_site_label
_atom_site_type_symbol
_atom_site_fract_x
_atom_site_fract_y
_atom_site_fract_z
_atom_site_occupancy
H4   H   0.491660197043984   0.476486227326952   0.099016108662056   1.0
H5   H   0.586834576642303   0.703910440477571   0.026811380938433   1.0
H6   H   0.792554503811765   0.505711805684022   0.002859691373118   1.0
H7   H   0.705495657395034   0.306676513859237   0.736813119904745   1.0
H8   H   0.799236897308646   0.531679088840555   0.646353521442123   1.0
N10   N   0.562315153309328   0.545455348500518   0.924373288108335   1.0
N11   N   0.724513502791588   0.468817600688965   0.827376921368810   1.0
