data_1
_audit_creation_method   'Generated by vasp2cif'
_cell_length_a    8.02649197725
_cell_length_b    6.56126961105
_cell_length_c    4.73029788465
_cell_angle_alpha    88.1437597895
_cell_angle_beta    73.8056115713
_cell_angle_gamma    90.3045719633
_symmetry_space_group_name_H-M    'P 1'
loop_
_atom_site_label
_atom_site_type_symbol
_atom_site_fract_x
_atom_site_fract_y
_atom_site_fract_z
_atom_site_occupancy
H4   H   0.516287458666930   0.484761809061155   0.931630313966942   1.0
H5   H   0.391086814521366   0.688735176233216   0.009193405038026   1.0
H6   H   0.225247458597735   0.376271127998628   0.153944930959113   1.0
H7   H   0.354007304273963   0.324394584057728   0.376518981855014   1.0
H8   H   0.221682412154529   0.526768562015761   0.432632196408363   1.0
N10   N   0.446540325584309   0.572046405901965   0.099432522927110   1.0
N11   N   0.302690686685196   0.440147657137579   0.272694890931625   1.0
