data_1
_audit_creation_method   'Generated by vasp2cif'
_cell_length_a    8.58948887749
_cell_length_b    4.39800845834
_cell_length_c    6.4089628417
_cell_angle_alpha    90.1415572938
_cell_angle_beta    89.8073352528
_cell_angle_gamma    74.3391655745
_symmetry_space_group_name_H-M    'P 1'
loop_
_atom_site_label
_atom_site_type_symbol
_atom_site_fract_x
_atom_site_fract_y
_atom_site_fract_z
_atom_site_occupancy
H4   H   0.539357755670582   0.506745518620380   0.675616942704173   1.0
H5   H   0.475228378036538   0.560202165710712   0.433023019997964   1.0
H6   H   0.781924811776974   0.591703961740655   0.592337890853827   1.0
H7   H   0.738392554110072   0.603710642995066   0.335914642863808   1.0
H8   H   0.638119731797976   0.901740574165543   0.496665770702861   1.0
N10   N   0.575449622761838   0.464139339691829   0.522738658324603   1.0
N11   N   0.688881447224539   0.658921003671176   0.484638957474894   1.0
