data_1
_audit_creation_method   'Generated by vasp2cif'
_cell_length_a    8.26750059354
_cell_length_b    6.46839658362
_cell_length_c    4.79311477472
_cell_angle_alpha    90.8378934352
_cell_angle_beta    106.357409329
_cell_angle_gamma    73.7994841725
_symmetry_space_group_name_H-M    'P 1'
loop_
_atom_site_label
_atom_site_type_symbol
_atom_site_fract_x
_atom_site_fract_y
_atom_site_fract_z
_atom_site_occupancy
H4   H   0.503085213759775   0.555800135733506   0.477692485659652   1.0
H5   H   0.455290461187339   0.610520050549177   0.784380903241576   1.0
H6   H   0.204667461729784   0.573718850412980   0.426416627810639   1.0
H7   H   0.326897423318968   0.321611295460372   0.377661616345122   1.0
H8   H   0.277526279071594   0.372335993326416   0.690924239113912   1.0
N10   N   0.478066677416130   0.488166813177422   0.648065983099222   1.0
N11   N   0.309086640855938   0.439040310903614   0.525721516249924   1.0
