data_1
_audit_creation_method   'Generated by vasp2cif'
_cell_length_a    8.58990758483
_cell_length_b    4.36738168797
_cell_length_c    6.36638675985
_cell_angle_alpha    89.9745542588
_cell_angle_beta    90.034173351
_cell_angle_gamma    76.4518496732
_symmetry_space_group_name_H-M    'P 1'
loop_
_atom_site_label
_atom_site_type_symbol
_atom_site_fract_x
_atom_site_fract_y
_atom_site_fract_z
_atom_site_occupancy
H4   H   0.561354256456006   0.463819195651361   0.647601359296665   1.0
H5   H   0.569297783838628   0.462452836190465   0.389007076168340   1.0
H6   H   0.300014603986774   0.765687134556025   0.638521425145541   1.0
H7   H   0.422216485484320   0.958233431007756   0.510629086490006   1.0
H8   H   0.305986309075209   0.761734044454698   0.373844914684312   1.0
N10   N   0.494741726268025   0.454955022495447   0.514349242199472   1.0
N11   N   0.374459145965659   0.759815132096300   0.509040105737959   1.0
