data_1
_audit_creation_method   'Generated by vasp2cif'
_cell_length_a    6.58091569663
_cell_length_b    4.44731373982
_cell_length_c    8.40518959882
_cell_angle_alpha    104.410196733
_cell_angle_beta    86.465228139
_cell_angle_gamma    84.8572946739
_symmetry_space_group_name_H-M    'P 1'
loop_
_atom_site_label
_atom_site_type_symbol
_atom_site_fract_x
_atom_site_fract_y
_atom_site_fract_z
_atom_site_occupancy
H4   H   0.501036960979768   0.894381695990582   0.386010808290301   1.0
H5   H   0.308768014570617   0.991586510046353   0.531273434992507   1.0
H6   H   0.716612565619677   0.162439696796312   0.554730411350334   1.0
H7   H   0.504117677439744   0.412478616415939   0.567799285143344   1.0
H8   H   0.543148894618511   0.230566775607741   0.720096364118412   1.0
N10   N   0.463905823381701   0.927077308228149   0.510250372072029   1.0
N11   N   0.561234700258638   0.204777549981337   0.592817833436058   1.0
