data_1
_audit_creation_method   'Generated by vasp2cif'
_cell_length_a    8.56486509587
_cell_length_b    4.40990098007
_cell_length_c    6.42509452537
_cell_angle_alpha    90.3763090415
_cell_angle_beta    89.8144019827
_cell_angle_gamma    74.3004642679
_symmetry_space_group_name_H-M    'P 1'
loop_
_atom_site_label
_atom_site_type_symbol
_atom_site_fract_x
_atom_site_fract_y
_atom_site_fract_z
_atom_site_occupancy
H4   H   0.353245591134212   0.144950833757544   0.443948583152811   1.0
H5   H   0.426643332340604   0.085132903142576   0.681528319497822   1.0
H6   H   0.615198493106982   0.191580838789096   0.333702703036368   1.0
H7   H   0.517010256172016   0.486793725335896   0.497791459458332   1.0
H8   H   0.664521786259209   0.179440663670311   0.587564825224504   1.0
N10   N   0.457236223256003   0.047952728389189   0.526768132934487   1.0
N11   N   0.568657884445473   0.245040963036864   0.483893282364825   1.0
