data_1
_audit_creation_method   'Generated by vasp2cif'
_cell_length_a    8.09721557848
_cell_length_b    6.97135549969
_cell_length_c    4.67613153457
_cell_angle_alpha    71.9966009482
_cell_angle_beta    106.230709643
_cell_angle_gamma    110.96417218
_symmetry_space_group_name_H-M    'P 1'
loop_
_atom_site_label
_atom_site_type_symbol
_atom_site_fract_x
_atom_site_fract_y
_atom_site_fract_z
_atom_site_occupancy
N5   N   0.451261418458287   0.429808223368973   0.780196193997597   1.0
H6   H   0.339567526769791   0.402822078062719   0.607232727671949   1.0
H7   H   0.443755395572033   0.291902171767042   0.949110454351597   1.0
H8   H   0.566529921319862   0.467541231617531   0.692147204959710   1.0
H9   H   0.455512910620840   0.550676309667445   0.869928273066883   1.0
