data_1
_audit_creation_method   'Generated by vasp2cif'
_cell_length_a    6.42553319588
_cell_length_b    6.4276201958
_cell_length_c    6.43364973801
_cell_angle_alpha    81.9624026615
_cell_angle_beta    82.1607828222
_cell_angle_gamma    82.2434593675
_symmetry_space_group_name_H-M    'P 1'
loop_
_atom_site_label
_atom_site_type_symbol
_atom_site_fract_x
_atom_site_fract_y
_atom_site_fract_z
_atom_site_occupancy
N5   N   0.533457894271535   0.534159873577110   0.587076279164130   1.0
H6   H   0.392582250721375   0.625973336388341   0.555136699093467   1.0
H7   H   0.500630872092437   0.394554392400345   0.681537827799822   1.0
H8   H   0.622503172099371   0.498919830059364   0.446051381002455   1.0
H9   H   0.618430095464227   0.617243924968591   0.665331267719168   1.0
