data_1
_audit_creation_method   'Generated by vasp2cif'
_cell_length_a    8.10302199025
_cell_length_b    6.9636825877
_cell_length_c    4.67493217599
_cell_angle_alpha    107.938030719
_cell_angle_beta    106.216085741
_cell_angle_gamma    69.303961926
_symmetry_space_group_name_H-M    'P 1'
loop_
_atom_site_label
_atom_site_type_symbol
_atom_site_fract_x
_atom_site_fract_y
_atom_site_fract_z
_atom_site_occupancy
N5   N   0.543342358972637   0.463501170817047   0.172418845120191   1.0
H6   H   0.654819259278838   0.435740775428982   0.345188736857104   1.0
H7   H   0.550950244291634   0.326851878713867   0.001171686010054   1.0
H8   H   0.428392258554169   0.499081032026133   0.259667744394129   1.0
H9   H   0.538833720061000   0.586194641168724   0.085914335059691   1.0
