data_1
_audit_creation_method   'Generated by vasp2cif'
_cell_length_a    4.67598682936
_cell_length_b    6.93855975741
_cell_length_c    8.09550406116
_cell_angle_alpha    70.0823528888
_cell_angle_beta    73.7731818026
_cell_angle_gamma    72.0634632967
_symmetry_space_group_name_H-M    'P 1'
loop_
_atom_site_label
_atom_site_type_symbol
_atom_site_fract_x
_atom_site_fract_y
_atom_site_fract_z
_atom_site_occupancy
N5   N   0.816877115465225   0.465203843684513   0.549458967795587   1.0
H6   H   0.645399863474552   0.437278930067826   0.661291383410415   1.0
H7   H   0.991265707743565   0.329965687155358   0.556302444860975   1.0
H8   H   0.729259601502214   0.497194672079139   0.435600568409917   1.0
H9   H   0.899794935773251   0.590354659729186   0.544096293469600   1.0
