data_1
_audit_creation_method   'Generated by vasp2cif'
_cell_length_a    6.576275333
_cell_length_b    6.65419012188
_cell_length_c    6.84561452668
_cell_angle_alpha    87.5480100759
_cell_angle_beta    88.6539066516
_cell_angle_gamma    97.9707681593
_symmetry_space_group_name_H-M    'P 1'
loop_
_atom_site_label
_atom_site_type_symbol
_atom_site_fract_x
_atom_site_fract_y
_atom_site_fract_z
_atom_site_occupancy
C1   C   0.638585214692476   0.338256816419395   0.532082813996276   1.0
C2   C   0.435710942172818   0.578978585009132   0.697237484726010   1.0
C3   C   0.383920090205464   0.511979652432821   0.345910381224066   1.0
H4   H   0.751755741235222   0.361595036773288   0.645545045970842   1.0
H5   H   0.551125976613022   0.596706074904667   0.809063472304814   1.0
H6   H   0.462702377363335   0.481823852479629   0.210801211174399   1.0
H7   H   0.320799789763001   0.654390642813127   0.331665959141525   1.0
H8   H   0.370302041659400   0.719266819785993   0.671926246371797   1.0
H9   H   0.652640073277354   0.647975492617249   0.471378486201935   1.0
H10   H   0.263336926183797   0.386582888452395   0.387222668427469   1.0
H11   H   0.520011510529599   0.211717167522494   0.574987604226379   1.0
H12   H   0.314910150281506   0.454170477324688   0.738945439853588   1.0
H13   H   0.711639064411806   0.313161029905963   0.392863177856746   1.0
N17   N   0.537147424554668   0.528627915862870   0.508108917090638   1.0
