data_1
_audit_creation_method   'Generated by vasp2cif'
_cell_length_a    6.53961754161
_cell_length_b    6.65429052427
_cell_length_c    6.86679430062
_cell_angle_alpha    90.1370389822
_cell_angle_beta    90.0060871865
_cell_angle_gamma    98.6962007065
_symmetry_space_group_name_H-M    'P 1'
loop_
_atom_site_label
_atom_site_type_symbol
_atom_site_fract_x
_atom_site_fract_y
_atom_site_fract_z
_atom_site_occupancy
C1   C   0.621092076594067   0.335540791088619   0.472977355385368   1.0
C2   C   0.384958846279147   0.533642058337321   0.655446520585421   1.0
C3   C   0.396520033290017   0.547486152447725   0.294427799951272   1.0
H4   H   0.711466151334314   0.331315254590891   0.605510719186938   1.0
H5   H   0.478280272798266   0.521970064404705   0.785109430301219   1.0
H6   H   0.497914049968316   0.545782451771693   0.168816609078696   1.0
H7   H   0.334402055159387   0.690150064855040   0.302632152486488   1.0
H8   H   0.323302487842859   0.676751933595526   0.654239805656267   1.0
H9   H   0.638797970802884   0.649546516450862   0.483854429308181   1.0
H10   H   0.271454419580642   0.419205337609114   0.288800498696993   1.0
H11   H   0.498885066205503   0.204605325105078   0.465123439109981   1.0
H12   H   0.260137942195442   0.405278882319351   0.646342092714946   1.0
H13   H   0.719910931141527   0.342361649473077   0.344937582670816   1.0
N17   N   0.520484045347636   0.526450395582884   0.477498713078980   1.0
