data_1
_audit_creation_method   'Generated by vasp2cif'
_cell_length_a    6.73917393646
_cell_length_b    6.73863890393
_cell_length_c    6.8132888811
_cell_angle_alpha    79.4191533966
_cell_angle_beta    86.7009247527
_cell_angle_gamma    93.3041900675
_symmetry_space_group_name_H-M    'P 1'
loop_
_atom_site_label
_atom_site_type_symbol
_atom_site_fract_x
_atom_site_fract_y
_atom_site_fract_z
_atom_site_occupancy
C1   C   0.721100484488602   0.500441064191442   0.564144379246812   1.0
C2   C   0.414906445260406   0.683978484230202   0.603731108846517   1.0
C3   C   0.445580384421660   0.471793828143994   0.339439471214718   1.0
H4   H   0.793860099344201   0.601980057909657   0.648852865301890   1.0
H5   H   0.350537614360356   0.553869886919458   0.712980909996247   1.0
H6   H   0.376862997390098   0.340620147861841   0.444719015982777   1.0
H7   H   0.552472761869261   0.424546914457970   0.234188408702345   1.0
H8   H   0.499441693213058   0.787708703752322   0.678357713712657   1.0
H9   H   0.618989284447544   0.732170725041968   0.357197918757898   1.0
H10   H   0.332134820950508   0.556389393361002   0.259947117835267   1.0
H11   H   0.653616590810572   0.365150450021069   0.663803686324904   1.0
H12   H   0.298614231882169   0.761380715337950   0.521775860222085   1.0
H13   H   0.825662482933716   0.460546047763060   0.452582656704273   1.0
N17   N   0.555481658663552   0.607531036831382   0.457503349735802   1.0
