data_1
_audit_creation_method   'Generated by vasp2cif'
_cell_length_a    5.03399501438
_cell_length_b    8.18747386271
_cell_length_c    7.86330446187
_cell_angle_alpha    104.228196417
_cell_angle_beta    74.1003016132
_cell_angle_gamma    89.7290161553
_symmetry_space_group_name_H-M    'P 1'
loop_
_atom_site_label
_atom_site_type_symbol
_atom_site_fract_x
_atom_site_fract_y
_atom_site_fract_z
_atom_site_occupancy
C1   C   0.470243903358501   0.576452228437894   0.400237310174042   1.0
C2   C   0.734645067119708   0.776448337820810   0.575615114844140   1.0
C3   C   0.720305128575035   0.475481338696049   0.593220909923772   1.0
H4   H   0.356293763591651   0.685967895265961   0.391060525431065   1.0
H5   H   0.909596025723822   0.746742716468482   0.452762531191375   1.0
H6   H   0.585176854582365   0.372296748093845   0.599236647363171   1.0
H7   H   0.781840777898182   0.514117245855203   0.718932539221782   1.0
H8   H   0.605417769145632   0.883742354862505   0.576433269166095   1.0
H9   H   0.391372195588978   0.656847743905246   0.685508165965274   1.0
H10   H   0.901721515932955   0.438238439054551   0.474749630974180   1.0
H11   H   0.652814742048584   0.540493618872283   0.282207771418982   1.0
H12   H   0.803104290557350   0.802691594291652   0.699016756408270   1.0
H13   H   0.343387807488853   0.469581187150297   0.407241119080958   1.0
N17   N   0.564808078996784   0.624112458005577   0.571747800026209   1.0
