data_1
_audit_creation_method   'Generated by vasp2cif'
_cell_length_a    6.69284448777
_cell_length_b    6.48119480704
_cell_length_c    6.50146925644
_cell_angle_alpha    90.0266228362
_cell_angle_beta    89.4613917906
_cell_angle_gamma    89.2824664721
_symmetry_space_group_name_H-M    'P 1'
loop_
_atom_site_label
_atom_site_type_symbol
_atom_site_fract_x
_atom_site_fract_y
_atom_site_fract_z
_atom_site_occupancy
H4   H   0.383621328711889   0.824283113910106   0.566895372771519   1.0
H5   H   0.660343317432911   0.573553982814644   0.311405040810158   1.0
H6   H   0.634993911047097   0.836928009348391   0.559521086770545   1.0
H7   H   0.355021548975167   0.326105713969994   0.565522909247370   1.0
H8   H   0.671143624143319   0.571061085479819   0.801918879999334   1.0
H9   H   0.405772793052236   0.586224690837845   0.841824530577910   1.0
H10   H   0.393568325967870   0.589183459546533   0.289482806507188   1.0
H11   H   0.618899682761381   0.282827439870161   0.556788355599146   1.0
C12   C   0.525532435535091   0.567565658193580   0.728998951267201   1.0
C13   C   0.518225125204175   0.569322449971523   0.393907997094566   1.0
C14   C   0.500693628453035   0.399978851451067   0.561258719812152   1.0
N16   N   0.514860784539302   0.738645800075219   0.562598471034342   1.0
