data_1
_audit_creation_method   'Generated by vasp2cif'
_cell_length_a    6.51954962262
_cell_length_b    6.50457093484
_cell_length_c    6.61655911238
_cell_angle_alpha    93.5053396414
_cell_angle_beta    85.8244364748
_cell_angle_gamma    90.8442205656
_symmetry_space_group_name_H-M    'P 1'
loop_
_atom_site_label
_atom_site_type_symbol
_atom_site_fract_x
_atom_site_fract_y
_atom_site_fract_z
_atom_site_occupancy
H4   H   0.488431882673979   0.869721191746351   0.325370489453022   1.0
H5   H   0.707692230209965   0.679093899653211   0.627598634244883   1.0
H6   H   0.422175736906475   0.881800920916696   0.576029105604903   1.0
H7   H   0.499620009872245   0.314930037709019   0.420293111275470   1.0
H8   H   0.163061497638218   0.628468167041049   0.511318783533447   1.0
H9   H   0.288234658528225   0.570980128471639   0.264299386182159   1.0
H10   H   0.738110096822197   0.612627901750088   0.359867423270401   1.0
H11   H   0.423266797039503   0.421823470982560   0.668896716817997   1.0
C12   C   0.309409745792458   0.599583177399460   0.425336805812989   1.0
C13   C   0.629953152812888   0.629568693623142   0.492979060302261   1.0
C14   C   0.464847791847262   0.456674850862456   0.511809688049880   1.0
N16   N   0.461280308156304   0.783822513451426   0.451033823959179   1.0
