data_1
_audit_creation_method   'Generated by vasp2cif'
_cell_length_a    6.47174571338
_cell_length_b    6.60560188448
_cell_length_c    6.56965252784
_cell_angle_alpha    94.6176093156
_cell_angle_beta    89.6023960357
_cell_angle_gamma    96.6258786825
_symmetry_space_group_name_H-M    'P 1'
loop_
_atom_site_label
_atom_site_type_symbol
_atom_site_fract_x
_atom_site_fract_y
_atom_site_fract_z
_atom_site_occupancy
H4   H   0.441284644716603   0.506924599208806   0.209658789216902   1.0
H5   H   0.805991305157670   0.558139132772013   0.472439212999102   1.0
H6   H   0.568805323809902   0.731090431903147   0.296193219119526   1.0
H7   H   0.446069712191117   0.366968067642819   0.719645422842900   1.0
H8   H   0.327122167928760   0.760402687135185   0.564029845881688   1.0
H9   H   0.208520073847571   0.507622341838512   0.485028545496737   1.0
H10   H   0.648431044526180   0.321837483766743   0.401024458673368   1.0
H11   H   0.581233066764499   0.615189729511154   0.776498449908425   1.0
C12   C   0.354096471425372   0.602771954981633   0.522816117614085   1.0
C13   C   0.649292050561790   0.478307614704997   0.466391880185002   1.0
C14   C   0.508701830201554   0.508236330237542   0.655650165214142   1.0
N16   N   0.504819266992996   0.590264832845755   0.338001152299203   1.0
