data_1
_audit_creation_method   'Generated by vasp2cif'
_cell_length_a    6.54700932438
_cell_length_b    6.51933125629
_cell_length_c    6.56695598734
_cell_angle_alpha    86.9764537066
_cell_angle_beta    83.8012514843
_cell_angle_gamma    93.0682984436
_symmetry_space_group_name_H-M    'P 1'
loop_
_atom_site_label
_atom_site_type_symbol
_atom_site_fract_x
_atom_site_fract_y
_atom_site_fract_z
_atom_site_occupancy
H4   H   0.377551667954357   0.800521418339642   0.694201453135960   1.0
H5   H   0.400359413695156   0.644579801559615   0.291286550854657   1.0
H6   H   0.569559546892371   0.861293279140078   0.506983904201071   1.0
H7   H   0.488532123664250   0.276526243354993   0.562108948358663   1.0
H8   H   0.773309183263436   0.627402017372766   0.668062268263732   1.0
H9   H   0.548598212852909   0.524860832007271   0.829204016985678   1.0
H10   H   0.232775770854872   0.539452031075378   0.510230210976580   1.0
H11   H   0.675492167888251   0.416886805400459   0.382847731514467   1.0
C12   C   0.613079953648679   0.572750932222093   0.673061859295494   1.0
C13   C   0.391345248141945   0.582936555435587   0.449088540241561   1.0
C14   C   0.551816276975444   0.429507786958077   0.505914744952449   1.0
N16   N   0.481968989934543   0.741500974090940   0.587776246201635   1.0
