data_1
_audit_creation_method   'Generated by vasp2cif'
_cell_length_a    8.86673993163
_cell_length_b    6.70600447925
_cell_length_c    4.78184650142
_cell_angle_alpha    91.6208006873
_cell_angle_beta    81.9298328725
_cell_angle_gamma    89.8827497628
_symmetry_space_group_name_H-M    'P 1'
loop_
_atom_site_label
_atom_site_type_symbol
_atom_site_fract_x
_atom_site_fract_y
_atom_site_fract_z
_atom_site_occupancy
H4   H   0.594163925540748   0.020672915937684   0.057887375317285   1.0
H5   H   0.330295206983823   0.278387120236889   0.012651035115897   1.0
H6   H   0.334342707176557   0.025712492548518   0.996254991390321   1.0
H7   H   0.394181152447282   0.024802824605238   0.507590187751196   1.0
H8   H   0.386011744172273   0.293084343647243   0.526120065290588   1.0
H9   H   0.663279218566904   0.302675375134936   0.567057552098799   1.0
H10   H   0.671514440357683   0.037970276067277   0.542279337144324   1.0
H11   H   0.588781607142042   0.289565628628628   0.081720412278990   1.0
C12   C   0.434329509835957   0.159780595200133   0.605294264313623   1.0
C13   C   0.562732645310254   0.157004532573388   0.961269529105620   1.0
C14   C   0.605987161072129   0.165897889300765   0.637534820691488   1.0
N16   N   0.391143667578146   0.153866523938319   0.927921216763147   1.0
