data_1
_audit_creation_method   'Generated by vasp2cif'
_cell_length_a    8.94353222574
_cell_length_b    6.57497554535
_cell_length_c    4.78519768496
_cell_angle_alpha    87.2697623855
_cell_angle_beta    100.601840487
_cell_angle_gamma    87.8353048583
_symmetry_space_group_name_H-M    'P 1'
loop_
_atom_site_label
_atom_site_type_symbol
_atom_site_fract_x
_atom_site_fract_y
_atom_site_fract_z
_atom_site_occupancy
H4   H   0.630745104849609   0.185880229699144   0.173376136650454   1.0
H5   H   0.317193454292962   0.103386443796623   0.897783247465334   1.0
H6   H   0.465884450115531   0.931924417435866   0.993670972478995   1.0
H7   H   0.523625482449148   0.964885664562075   0.539095085643723   1.0
H8   H   0.369704799557617   0.155506492109787   0.448124676387920   1.0
H9   H   0.552557229195479   0.423637750836214   0.601754967952651   1.0
H10   H   0.702349381679070   0.233331087009311   0.705567793018751   1.0
H11   H   0.474100509570292   0.371605042207321   0.069942940447923   1.0
C12   C   0.472683650482281   0.105436466791716   0.599297765997427   1.0
C13   C   0.539568165837444   0.245983575414940   0.003341650866183   1.0
C14   C   0.583124363684909   0.273304913708259   0.706515727704165   1.0
N16   N   0.432026535678354   0.073996084443550   0.896915352146181   1.0
