data_1
_audit_creation_method   'Generated by vasp2cif'
_cell_length_a    9.07954066677
_cell_length_b    4.74980869709
_cell_length_c    6.92315318456
_cell_angle_alpha    105.736941353
_cell_angle_beta    89.7559519556
_cell_angle_gamma    78.8304706055
_symmetry_space_group_name_H-M    'P 1'
loop_
_atom_site_label
_atom_site_type_symbol
_atom_site_fract_x
_atom_site_fract_y
_atom_site_fract_z
_atom_site_occupancy
H4   H   0.423802645980736   0.546453935753000   0.307309170252502   1.0
H5   H   0.640171172077089   0.710040657808925   0.469257464108345   1.0
H6   H   0.654038041925041   0.911796451944916   0.309409867444970   1.0
H7   H   0.434980957044580   0.078809228710206   0.659900729094275   1.0
H8   H   0.499222594308769   0.324069134751767   0.539905402942260   1.0
H9   H   0.325454151481637   0.176212663612134   0.254727582387382   1.0
H10   H   0.235323983323163   0.021850956595536   0.417505457664113   1.0
H11   H   0.483515074096950   0.671515789163657   0.103763619579787   1.0
C12   C   0.459860858515654   0.115680210634878   0.516056959565176   1.0
C13   C   0.451730308141180   0.733372293794048   0.263378847541212   1.0
C14   C   0.343646026391959   0.036025578019689   0.357372104918966   1.0
N16   N   0.578517605662064   0.846737726919336   0.392338837154902   1.0
