data_1
_audit_creation_method   'Generated by vasp2cif'
_cell_length_a    6.86343291698
_cell_length_b    4.7713101729
_cell_length_c    9.08878700217
_cell_angle_alpha    101.950806299
_cell_angle_beta    90.2284794325
_cell_angle_gamma    104.177348931
_symmetry_space_group_name_H-M    'P 1'
loop_
_atom_site_label
_atom_site_type_symbol
_atom_site_fract_x
_atom_site_fract_y
_atom_site_fract_z
_atom_site_occupancy
H4   H   0.324894090873030   0.586889677339059   0.582759959946848   1.0
H5   H   0.486487782785517   0.738586479933495   0.365543624060358   1.0
H6   H   0.322365129011501   0.938223954056923   0.349445514760518   1.0
H7   H   0.665958213135752   0.103486080153076   0.575795096962104   1.0
H8   H   0.548389813447464   0.347662748210929   0.506050820213957   1.0
H9   H   0.250779045950900   0.207978347634210   0.669921219388662   1.0
H10   H   0.412891690606266   0.064374560672519   0.769983713007676   1.0
H11   H   0.115317012370383   0.697773605257957   0.516359936500045   1.0
C12   C   0.522845620355376   0.142977916097379   0.546291386028813   1.0
C13   C   0.274371285638047   0.765934905994229   0.551280764873056   1.0
C14   C   0.358039417555815   0.070581325206241   0.658597270389976   1.0
N16   N   0.405529289151289   0.875010725946041   0.426102339310177   1.0
