data_1
_audit_creation_method   'Generated by vasp2cif'
_cell_length_a    8.97907756347
_cell_length_b    4.819180627
_cell_length_c    6.80859381055
_cell_angle_alpha    76.2624065089
_cell_angle_beta    88.9630182772
_cell_angle_gamma    100.934394299
_symmetry_space_group_name_H-M    'P 1'
loop_
_atom_site_label
_atom_site_type_symbol
_atom_site_fract_x
_atom_site_fract_y
_atom_site_fract_z
_atom_site_occupancy
H4   H   0.600177282022094   0.621361527502574   0.638909441346661   1.0
H5   H   0.364344126732526   0.730998537120731   0.496484912805405   1.0
H6   H   0.331240417014156   0.884843317072980   0.684153376530598   1.0
H7   H   0.564011540409105   0.132069065612680   0.341805571369168   1.0
H8   H   0.466376937492587   0.327280099331601   0.476300774926807   1.0
H9   H   0.625671152282873   0.185915575718120   0.780318948516457   1.0
H10   H   0.754489235327862   0.114536667971584   0.604860261442978   1.0
H11   H   0.513412686341377   0.652827284725838   0.871431513951099   1.0
C12   C   0.523342374952514   0.144298013882403   0.490297676626410   1.0
C13   C   0.549088167276151   0.759060372131057   0.713746207692072   1.0
C14   C   0.635805103878905   0.079483519369143   0.657534928291555   1.0
N16   N   0.415560805692818   0.853435094829339   0.591121486186697   1.0
