data_1
_audit_creation_method   'Generated by vasp2cif'
_cell_length_a    6.46327030513
_cell_length_b    4.58444043616
_cell_length_c    9.31197690675
_cell_angle_alpha    88.5814805472
_cell_angle_beta    90.022685641
_cell_angle_gamma    83.7050803017
_symmetry_space_group_name_H-M    'P 1'
loop_
_atom_site_label
_atom_site_type_symbol
_atom_site_fract_x
_atom_site_fract_y
_atom_site_fract_z
_atom_site_occupancy
H4   H   0.269093951741119   0.992738670866920   0.499370285775378   1.0
H5   H   0.448593932905048   0.263338608011857   0.327485279199010   1.0
H6   H   0.314710073709641   0.573275185727475   0.375680037366550   1.0
H7   H   0.701097368487098   0.280469985907473   0.512876469500263   1.0
H8   H   0.588750351699169   0.645814971606683   0.544904009219501   1.0
H9   H   0.342285700243501   0.455773870515870   0.722282585015471   1.0
H10   H   0.484944040816948   0.103539288954749   0.711319520018094   1.0
H11   H   0.106254443056862   0.324606512658107   0.528963164402327   1.0
C12   C   0.557636390275995   0.418826152121866   0.536005404694080   1.0
C13   C   0.266267083656366   0.222300290645173   0.526749079328262   1.0
C14   C   0.413832628929740   0.292491063114426   0.649155156016960   1.0
N16   N   0.396256554788636   0.382506227161862   0.416133815806027   1.0
