data_1
_audit_creation_method   'Generated by vasp2cif'
_cell_length_a    4.69374562395
_cell_length_b    6.48397130155
_cell_length_c    9.11518165387
_cell_angle_alpha    93.881361238
_cell_angle_beta    90.5155989489
_cell_angle_gamma    96.4764046966
_symmetry_space_group_name_H-M    'P 1'
loop_
_atom_site_label
_atom_site_type_symbol
_atom_site_fract_x
_atom_site_fract_y
_atom_site_fract_z
_atom_site_occupancy
H4   H   0.927033271493258   0.982057680487564   0.202009489829152   1.0
H5   H   0.972709946255975   0.868075115924348   0.501568622791297   1.0
H6   H   0.682425571579223   0.811939372376685   0.391943832736807   1.0
H7   H   0.473219866038200   0.083267917016457   0.525754903116756   1.0
H8   H   0.819166101375544   0.188858480761098   0.593624128197980   1.0
H9   H   0.884674637348333   0.391044522970390   0.372952502773238   1.0
H10   H   0.593221216260972   0.238488389023068   0.278221509071408   1.0
H11   H   0.191163185350746   0.104967601800560   0.331273053958206   1.0
C12   C   0.695819567363586   0.123494015344782   0.496606962518690   1.0
C13   C   0.963601137273038   0.063239571784123   0.309579430127471   1.0
C14   C   0.772150111466374   0.235060139787123   0.354782831176109   1.0
N16   N   0.833509688259994   0.930612288719068   0.433044099583924   1.0
