data_1
_audit_creation_method   'Generated by vasp2cif'
_cell_length_a    8.49177536153
_cell_length_b    6.94332044153
_cell_length_c    4.80341952948
_cell_angle_alpha    89.4078328329
_cell_angle_beta    88.7888428219
_cell_angle_gamma    84.459750415
_symmetry_space_group_name_H-M    'P 1'
loop_
_atom_site_label
_atom_site_type_symbol
_atom_site_fract_x
_atom_site_fract_y
_atom_site_fract_z
_atom_site_occupancy
H4   H   0.425508826919753   0.871666977566342   0.917670435885306   1.0
H5   H   0.416071193731945   0.296758150345795   0.988685061638286   1.0
H6   H   0.580929033251216   0.138421801674724   0.971869716410538   1.0
H7   H   0.551772326639785   0.047311089553070   0.441551771588408   1.0
H8   H   0.413547649416060   0.260556750212992   0.472175125178708   1.0
H9   H   0.191572314013619   0.072121061620017   0.349538658343611   1.0
H10   H   0.319855379136413   0.854251108984222   0.403203955144782   1.0
H11   H   0.261900151768906   0.051716997287308   0.849292057750155   1.0
C12   C   0.443768456343854   0.124990878879053   0.363142521277162   1.0
C13   C   0.354892464000265   0.001040830044630   0.992061958840971   1.0
C14   C   0.308392582332481   0.996918015930028   0.304986640674137   1.0
N16   N   0.465361743162127   0.160805993429122   0.048904601210040   1.0
