data_1
_audit_creation_method   'Generated by vasp2cif'
_cell_length_a    8.62478848114
_cell_length_b    6.82565850597
_cell_length_c    4.83826545859
_cell_angle_alpha    87.1901379559
_cell_angle_beta    91.2141673875
_cell_angle_gamma    81.1562274629
_symmetry_space_group_name_H-M    'P 1'
loop_
_atom_site_label
_atom_site_type_symbol
_atom_site_fract_x
_atom_site_fract_y
_atom_site_fract_z
_atom_site_occupancy
H4   H   0.326500943510425   0.112129264639393   0.716183757331045   1.0
H5   H   0.521958421600786   0.412793637973081   0.819376586372634   1.0
H6   H   0.588477201926175   0.166182775058964   0.817919573935200   1.0
H7   H   0.597704648974599   0.152166135822178   0.301128551638513   1.0
H8   H   0.476612002441499   0.394344385498279   0.294251684957800   1.0
H9   H   0.241826303425313   0.219749063928234   0.291480153473785   1.0
H10   H   0.361340486108496   0.994115853922409   0.207186318634435   1.0
H11   H   0.255666716825033   0.361841151840558   0.810640921799596   1.0
C12   C   0.494004941238309   0.247130977752022   0.210290201026048   1.0
C13   C   0.334551657462718   0.224287604126268   0.864969357261749   1.0
C14   C   0.341350013250093   0.155274441811592   0.174132826003316   1.0
N16   N   0.504076608972767   0.272801495002433   0.893498488215776   1.0
