data_1
_audit_creation_method   'Generated by vasp2cif'
_cell_length_a    6.5047506217
_cell_length_b    6.74552067341
_cell_length_c    6.58707920064
_cell_angle_alpha    84.2169070979
_cell_angle_beta    82.7569600461
_cell_angle_gamma    95.059746219
_symmetry_space_group_name_H-M    'P 1'
loop_
_atom_site_label
_atom_site_type_symbol
_atom_site_fract_x
_atom_site_fract_y
_atom_site_fract_z
_atom_site_occupancy
H4   H   0.589163644478967   0.017640552512914   0.679437899133018   1.0
H5   H   0.367711728612401   0.961649675213618   0.393000894911090   1.0
H6   H   0.224495354814061   0.506305057548984   0.623753016415109   1.0
H7   H   0.520542902524482   0.340451743745109   0.841285354522485   1.0
H8   H   0.151893609267686   0.258242510516052   0.363219766061279   1.0
C9   C   0.444761739687281   0.290386519345746   0.717071803161739   1.0
C10   C   0.369394473961800   0.085478963211908   0.484461201243416   1.0
C11   C   0.299875461595853   0.371670606428734   0.610213185427613   1.0
N13   N   0.485418501048390   0.113467877736046   0.635772124617331   1.0
N14   N   0.255539559943411   0.241549966743578   0.466890218632438   1.0
