data_1
_audit_creation_method   'Generated by vasp2cif'
_cell_length_a    6.50011134045
_cell_length_b    6.75642738362
_cell_length_c    6.59799796753
_cell_angle_alpha    95.3952774564
_cell_angle_beta    81.7064381679
_cell_angle_gamma    86.2958285986
_symmetry_space_group_name_H-M    'P 1'
loop_
_atom_site_label
_atom_site_type_symbol
_atom_site_fract_x
_atom_site_fract_y
_atom_site_fract_z
_atom_site_occupancy
H4   H   0.434518976012785   0.034682490236540   0.335241925079116   1.0
H5   H   0.671346715112652   0.011989240753950   0.610514686231184   1.0
H6   H   0.753629790507011   0.562083020116049   0.357715231599002   1.0
H7   H   0.465744124177809   0.357803468911981   0.161921615691119   1.0
H8   H   0.859913771230393   0.330876050104519   0.619932640385213   1.0
C9   C   0.551527080774141   0.320116816222366   0.282499215304485   1.0
C10   C   0.656028698329605   0.131555589423558   0.515093080477026   1.0
C11   C   0.692305729592412   0.420227267103507   0.378758690738022   1.0
N13   N   0.531850059722834   0.141817552381954   0.370007204007373   1.0
N14   N   0.755235874297816   0.299863451627200   0.521932981706562   1.0
