data_1
_audit_creation_method   'Generated by vasp2cif'
_cell_length_a    6.72034950567
_cell_length_b    6.57119592041
_cell_length_c    6.57944849995
_cell_angle_alpha    82.948636573
_cell_angle_beta    84.7208826241
_cell_angle_gamma    96.2903273636
_symmetry_space_group_name_H-M    'P 1'
loop_
_atom_site_label
_atom_site_type_symbol
_atom_site_fract_x
_atom_site_fract_y
_atom_site_fract_z
_atom_site_occupancy
H4   H   0.598573519226349   0.330171043933710   0.833059846175175   1.0
H5   H   0.634794231968890   0.049101225337388   0.600992481591447   1.0
H6   H   0.105278596418664   0.318197451964160   0.474509859233955   1.0
H7   H   0.287479304681227   0.514777269935692   0.774119022794274   1.0
H8   H   0.337633601670220   0.047678973395840   0.387376450461673   1.0
C9   C   0.328625862072293   0.390439779911041   0.693447285104284   1.0
C10   C   0.517503685228647   0.148462924928630   0.607160102343471   1.0
C11   C   0.239812582349472   0.294443654776181   0.546294564069186   1.0
N13   N   0.500275677304373   0.296815913889461   0.728457927147645   1.0
N14   N   0.360183951472813   0.145125892874823   0.495199473591406   1.0
