data_1
_audit_creation_method   'Generated by vasp2cif'
_cell_length_a    6.5862898211
_cell_length_b    6.5375076622
_cell_length_c    6.73715239014
_cell_angle_alpha    96.4207395001
_cell_angle_beta    95.6778208086
_cell_angle_gamma    96.4203694492
_symmetry_space_group_name_H-M    'P 1'
loop_
_atom_site_label
_atom_site_type_symbol
_atom_site_fract_x
_atom_site_fract_y
_atom_site_fract_z
_atom_site_occupancy
H4   H   0.204772492933998   0.446017522126773   0.629147730738694   1.0
H5   H   0.423079388193514   0.157585804190667   0.697479181950278   1.0
H6   H   0.594359244809212   0.390317447257672   0.165911710456413   1.0
H7   H   0.291119588145221   0.610370945517211   0.313732825341596   1.0
H8   H   0.655451427382879   0.129359371829182   0.416925167969247   1.0
C9   C   0.363558432549048   0.484727903928132   0.367401326496051   1.0
C10   C   0.427405585574000   0.249636255826211   0.574445314942935   1.0
C11   C   0.512562999740716   0.377175179074292   0.295370548026263   1.0
N13   N   0.313283047473874   0.402288473423098   0.540125752862053   1.0
N14   N   0.549367380486665   0.232149560687823   0.426631192746520   1.0
