data_1
_audit_creation_method   'Generated by vasp2cif'
_cell_length_a    6.54775853285
_cell_length_b    4.46970955658
_cell_length_c    9.68372911307
_cell_angle_alpha    87.5101974388
_cell_angle_beta    89.4156703078
_cell_angle_gamma    79.3638489157
_symmetry_space_group_name_H-M    'P 1'
loop_
_atom_site_label
_atom_site_type_symbol
_atom_site_fract_x
_atom_site_fract_y
_atom_site_fract_z
_atom_site_occupancy
H4   H   0.537990696805994   0.514417605688954   0.311979182280353   1.0
H5   H   0.235815083857739   0.256967754654696   0.656872251763657   1.0
H6   H   0.498664327976548   0.560276359128881   0.749149874414961   1.0
H7   H   0.709221873146982   0.728761475289093   0.515211653703422   1.0
H8   H   0.256449037122104   0.221679289054096   0.394135201790609   1.0
C9   C   0.481974186415445   0.519178698036716   0.641458735661483   1.0
C10   C   0.584526436103847   0.602843884056348   0.526702840525742   1.0
C11   C   0.350390539860036   0.335130532334565   0.457816476550289   1.0
N13   N   0.337932926093896   0.352683545105601   0.596026147788684   1.0
N14   N   0.500116449653970   0.485445329484278   0.414239975957797   1.0
