data_1
_audit_creation_method   'Generated by vasp2cif'
_cell_length_a    10.2241201821
_cell_length_b    4.52618794285
_cell_length_c    6.54552761484
_cell_angle_alpha    82.2507056266
_cell_angle_beta    84.7433736672
_cell_angle_gamma    69.0295568949
_symmetry_space_group_name_H-M    'P 1'
loop_
_atom_site_label
_atom_site_type_symbol
_atom_site_fract_x
_atom_site_fract_y
_atom_site_fract_z
_atom_site_occupancy
H4   H   0.708100500096386   0.703997715344386   0.594177127832857   1.0
H5   H   0.370561013840572   0.853000022462695   0.251321658859865   1.0
H6   H   0.283498678350455   0.286013169250715   0.498620665705431   1.0
H7   H   0.511373433334406   0.177394888290671   0.738350763435953   1.0
H8   H   0.625634667936509   0.495872241721457   0.306115908940470   1.0
C9   C   0.387967825529905   0.112128645767477   0.495809363463067   1.0
C10   C   0.499574023548050   0.058545877693867   0.613388333373528   1.0
C11   C   0.564106328958232   0.692068725110332   0.391333725726014   1.0
N13   N   0.430462996844973   0.880676705707977   0.359766142168993   1.0
N14   N   0.607286063888985   0.795985858174447   0.546127138725090   1.0
