data_1
_audit_creation_method   'Generated by vasp2cif'
_cell_length_a    9.2472392999
_cell_length_b    4.49948187228
_cell_length_c    6.65114745212
_cell_angle_alpha    100.962549371
_cell_angle_beta    93.7896374635
_cell_angle_gamma    90.6410741583
_symmetry_space_group_name_H-M    'P 1'
loop_
_atom_site_label
_atom_site_type_symbol
_atom_site_fract_x
_atom_site_fract_y
_atom_site_fract_z
_atom_site_occupancy
H4   H   0.306144253394600   0.845476363170524   0.398143014565977   1.0
H5   H   0.538916880528787   0.335728571231151   0.747312442369393   1.0
H6   H   0.720853271091926   0.496711801624972   0.514551759259152   1.0
H7   H   0.565312015462162   0.852725695319552   0.280673745624164   1.0
H8   H   0.283482847043516   0.532601243663346   0.676640379409555   1.0
C9   C   0.608795196949668   0.559159951737132   0.511962933198658   1.0
C10   C   0.532784215943103   0.735507481326683   0.398033782208241   1.0
C11   C   0.380177186807558   0.574166139935269   0.604047937942486   1.0
N13   N   0.511526761964940   0.461239875612259   0.637806687403363   1.0
N14   N   0.391814694399071   0.742861127177971   0.459537322162204   1.0
