data_1
_audit_creation_method   'Generated by vasp2cif'
_cell_length_a    7.11170945307
_cell_length_b    4.52348582231
_cell_length_c    8.86700172852
_cell_angle_alpha    92.8834235278
_cell_angle_beta    88.2323834647
_cell_angle_gamma    79.1767456579
_symmetry_space_group_name_H-M    'P 1'
loop_
_atom_site_label
_atom_site_type_symbol
_atom_site_fract_x
_atom_site_fract_y
_atom_site_fract_z
_atom_site_occupancy
H4   H   0.474844070706944   0.188773453935831   0.741267489274406   1.0
H5   H   0.709304011121866   0.640249955179499   0.374719824826244   1.0
H6   H   0.476470966682037   0.071863943317659   0.263208136899088   1.0
H7   H   0.315071963988103   0.440736106984474   0.513126275015274   1.0
H8   H   0.708607402650799   0.695394836852529   0.662276425348644   1.0
C9   C   0.499401884698052   0.054529927025264   0.382147698622383   1.0
C10   C   0.421948917120780   0.237004434816164   0.504781841292868   1.0
C11   C   0.625199244079845   0.847832193673497   0.589271896721918   1.0
N13   N   0.624152910293105   0.814067318920593   0.437880267170279   1.0
N14   N   0.502418949564408   0.103858798171125   0.631738612141355   1.0
