data_1
_audit_creation_method   'Generated by vasp2cif'
_cell_length_a    6.70720741794
_cell_length_b    4.54858871855
_cell_length_c    9.94720842561
_cell_angle_alpha    113.434463555
_cell_angle_beta    98.0624484881
_cell_angle_gamma    78.7541106175
_symmetry_space_group_name_H-M    'P 1'
loop_
_atom_site_label
_atom_site_type_symbol
_atom_site_fract_x
_atom_site_fract_y
_atom_site_fract_z
_atom_site_occupancy
H4   H   0.568043475547917   0.171507539180865   0.277138942380802   1.0
H5   H   0.285391667611478   0.422231639111729   0.653496836714687   1.0
H6   H   0.534756571476663   0.829416876376115   0.721709058637053   1.0
H7   H   0.733839158337474   0.653670466336280   0.466407793629557   1.0
H8   H   0.300346874528167   0.024751964984652   0.386608725997363   1.0
C9   C   0.517824716589232   0.641744709741531   0.614547003578878   1.0
C10   C   0.614486086857980   0.556503265440199   0.489333016408175   1.0
C11   C   0.391501421596097   0.215530640214901   0.442617101467533   1.0
N13   N   0.381226318171606   0.425208051109010   0.582837338148387   1.0
N14   N   0.533748588276936   0.290895696498666   0.384448531402846   1.0
