data_1
_audit_creation_method   'Generated by vasp2cif'
_cell_length_a    4.9916598982
_cell_length_b    4.95059050238
_cell_length_c    5.16397029917
_cell_angle_alpha    76.5183237907
_cell_angle_beta    88.0523186839
_cell_angle_gamma    95.265449596
_symmetry_space_group_name_H-M    'P 1'
loop_
_atom_site_label
_atom_site_type_symbol
_atom_site_fract_x
_atom_site_fract_y
_atom_site_fract_z
_atom_site_occupancy
C1   C   0.431772648891780   0.572951503701439   0.335939675277039   1.0
C2   C   0.540371078009400   0.357821304475579   0.208743556069884   1.0
H3   H   0.753428358583925   0.412439992219454   0.147673746744786   1.0
H4   H   0.427768310903083   0.351217142433498   0.035760761817535   1.0
H5   H   0.625567092378752   0.412827195447292   0.680380670535605   1.0
H6   H   0.528077091117595   0.729686900608847   0.674137744861717   1.0
H7   H   0.515554033122932   0.151840786254212   0.342745948497779   1.0
H8   H   0.445215647203526   0.775951329420174   0.198106962628415   1.0
H9   H   0.223886495574185   0.518270143142566   0.413309311297688   1.0
H10   H   0.791476439235304   0.706175909149430   0.479329544583990   1.0
N14   N   0.604252240923593   0.605683844463776   0.560351466286889   1.0
