data_1
_audit_creation_method   'Generated by vasp2cif'
_cell_length_a    5.30429909746
_cell_length_b    4.80516860869
_cell_length_c    4.9620935575
_cell_angle_alpha    81.7951323294
_cell_angle_beta    75.2375254042
_cell_angle_gamma    85.7952768831
_symmetry_space_group_name_H-M    'P 1'
loop_
_atom_site_label
_atom_site_type_symbol
_atom_site_fract_x
_atom_site_fract_y
_atom_site_fract_z
_atom_site_occupancy
C1   C   0.550882578327083   0.790206423357790   0.332004456258080   1.0
C2   C   0.495683877645840   0.580056392286658   0.158564435453260   1.0
H3   H   0.669715640010096   0.533623424657521   0.001079582012611   1.0
H4   H   0.345810260541653   0.664015219822932   0.053269694164789   1.0
H5   H   0.729373687899067   0.478594424060341   0.563735624051671   1.0
H6   H   0.805731698825847   0.813063198475226   0.586733332486453   1.0
H7   H   0.430713764696236   0.382833195593764   0.285236155858508   1.0
H8   H   0.604659823519104   0.991040827900546   0.207849986019055   1.0
H9   H   0.384610069253763   0.819729887932013   0.505845616836650   1.0
H10   H   0.937639947003134   0.663699904753834   0.295821572583473   1.0
N14   N   0.773396098453774   0.678433788722614   0.456582669700725   1.0
