data_1
_audit_creation_method   'Generated by vasp2cif'
_cell_length_a    4.28100349554
_cell_length_b    3.62848389968
_cell_length_c    7.97023084269
_cell_angle_alpha    95.2870740965
_cell_angle_beta    90.3403667782
_cell_angle_gamma    90.4865192022
_symmetry_space_group_name_H-M    'P 1'
loop_
_atom_site_label
_atom_site_type_symbol
_atom_site_fract_x
_atom_site_fract_y
_atom_site_fract_z
_atom_site_occupancy
C1   C   0.570954568291420   0.756826399728816   0.419536350993901   1.0
C2   C   0.567255279466579   0.550321005040047   0.575199712437104   1.0
H3   H   0.773998485645947   0.381448322827566   0.584821632638594   1.0
H4   H   0.564975950392324   0.760197248752235   0.681448556780936   1.0
H5   H   0.770967462752978   0.348477203098213   0.241522397486335   1.0
H6   H   0.574675681056334   0.687442659632886   0.159541154485296   1.0
H7   H   0.362681554902451   0.923700608651764   0.414161402733789   1.0
H8   H   0.359925145479330   0.377014217968480   0.580865257299997   1.0
H9   H   0.779441264522674   0.928581503128903   0.418204829194927   1.0
H10   H   0.376634509657457   0.343914786613702   0.238958039353754   1.0
N14   N   0.573751854029730   0.515450245960714   0.255636855400212   1.0
