data_1
_audit_creation_method   'Generated by vasp2cif'
_cell_length_a    7.71115900423
_cell_length_b    3.60772327
_cell_length_c    4.63459792786
_cell_angle_alpha    74.6646561308
_cell_angle_beta    98.7737559861
_cell_angle_gamma    89.2121827935
_symmetry_space_group_name_H-M    'P 1'
loop_
_atom_site_label
_atom_site_type_symbol
_atom_site_fract_x
_atom_site_fract_y
_atom_site_fract_z
_atom_site_occupancy
C1   C   0.459865230261393   0.593939168969008   0.366400247220184   1.0
C2   C   0.403197451843283   0.660783102706709   0.648508349051632   1.0
H3   H   0.382378373639895   0.389267789930095   0.805626165052132   1.0
H4   H   0.501585260546747   0.808914073749243   0.763813135305078   1.0
H5   H   0.668966820424913   0.214607830318364   0.648772866927011   1.0
H6   H   0.735532766724404   0.615572471230522   0.453800536837214   1.0
H7   H   0.374899688582914   0.400920897946847   0.274349684498574   1.0
H8   H   0.279370035225952   0.833479192091666   0.591915687206175   1.0
H9   H   0.459487698502592   0.857384237014529   0.188205989402988   1.0
H10   H   0.670034619207243   0.284056948901188   0.270976625151917   1.0
N14   N   0.643360496499810   0.412599751214159   0.436258300696686   1.0
