data_1
_audit_creation_method   'Generated by vasp2cif'
_cell_length_a    5.00056646114
_cell_length_b    3.7654120761
_cell_length_c    7.05040463461
_cell_angle_alpha    98.5636743778
_cell_angle_beta    101.677216345
_cell_angle_gamma    97.1822260492
_symmetry_space_group_name_H-M    'P 1'
loop_
_atom_site_label
_atom_site_type_symbol
_atom_site_fract_x
_atom_site_fract_y
_atom_site_fract_z
_atom_site_occupancy
C1   C   0.405434304566519   0.859428962380946   0.624965521610271   1.0
C2   C   0.587019736327953   0.637920278531141   0.525422232007159   1.0
H3   H   0.473238252664267   0.448232131141907   0.393363289931280   1.0
H4   H   0.737963250869143   0.825095826762599   0.482422777827743   1.0
H5   H   0.091820604431824   0.426745248573567   0.606045083925693   1.0
H6   H   0.089315494910750   0.800182610108713   0.771540880701892   1.0
H7   H   0.530476042983359   0.062217787917490   0.746290809375289   1.0
H8   H   0.693761588198072   0.483046182318318   0.626230545382469   1.0
H9   H   0.277632454367740   0.990185231119789   0.521878749050401   1.0
H10   H   0.325148257587422   0.533522033468834   0.830747560431917   1.0
N14   N   0.213626418883315   0.631895975974054   0.713499434140587   1.0
