data_1
_audit_creation_method   'Generated by vasp2cif'
_cell_length_a    4.35117203701
_cell_length_b    3.5031664709
_cell_length_c    8.8666543053
_cell_angle_alpha    64.8415288705
_cell_angle_beta    90.6364000277
_cell_angle_gamma    83.9939062055
_symmetry_space_group_name_H-M    'P 1'
loop_
_atom_site_label
_atom_site_type_symbol
_atom_site_fract_x
_atom_site_fract_y
_atom_site_fract_z
_atom_site_occupancy
C1   C   0.286927952001932   0.487659775822330   0.607141423840922   1.0
C2   C   0.540311023511975   0.439286261258402   0.498707512335635   1.0
H3   H   0.437457064266383   0.425602763806779   0.389008727321837   1.0
H4   H   0.676784137090607   0.705029990705079   0.458855623803729   1.0
H5   H   0.465801953503629   0.115928159381561   0.855647332800913   1.0
H6   H   0.235449623042285   0.559392231377949   0.826815788971665   1.0
H7   H   0.156682630465987   0.800161551671629   0.546922498637656   1.0
H8   H   0.696771435849655   0.148602061978153   0.564246927535891   1.0
H9   H   0.125292838217376   0.255068405693727   0.633255708990205   1.0
H10   H   0.606925312630686   0.579008812690986   0.773327510035571   1.0
N14   N   0.410889547074255   0.432092234069465   0.775817557300734   1.0
