data_1
_audit_creation_method   'Generated by vasp2cif'
_cell_length_a    7.51169956872
_cell_length_b    4.01500931622
_cell_length_c    4.68080200672
_cell_angle_alpha    115.902359979
_cell_angle_beta    79.4662332841
_cell_angle_gamma    104.011748972
_symmetry_space_group_name_H-M    'P 1'
loop_
_atom_site_label
_atom_site_type_symbol
_atom_site_fract_x
_atom_site_fract_y
_atom_site_fract_z
_atom_site_occupancy
C1   C   0.571074448329682   0.472819121393854   0.445197221093331   1.0
C2   C   0.705708772972251   0.837695459137407   0.585999629928651   1.0
H3   H   0.823237127855371   0.785131748011267   0.654477085357300   1.0
H4   H   0.759972867565594   0.962193371156914   0.415382631783920   1.0
H5   H   0.436262634644614   0.614806666657984   0.155299457800595   1.0
H6   H   0.349409846107875   0.748750542520426   0.526922109287788   1.0
H7   H   0.635290543442217   0.266287915295337   0.237982530752554   1.0
H8   H   0.638658221514611   0.039142580047795   0.793676279089517   1.0
H9   H   0.515108437616270   0.351619361773807   0.616861627730273   1.0
H10   H   0.313635171576244   0.291822701445959   0.275932992608993   1.0
N14   N   0.409874472308125   0.537137514920204   0.344708403403601   1.0
