data_1
_audit_creation_method   'Generated by vasp2cif'
_cell_length_a    4.2159221763
_cell_length_b    3.4779580291
_cell_length_c    8.30803335887
_cell_angle_alpha    95.37637578
_cell_angle_beta    86.5373763828
_cell_angle_gamma    83.9273955695
_symmetry_space_group_name_H-M    'P 1'
loop_
_atom_site_label
_atom_site_type_symbol
_atom_site_fract_x
_atom_site_fract_y
_atom_site_fract_z
_atom_site_occupancy
C1   C   0.419082015692683   0.107597915053832   0.466414360474068   1.0
C2   C   0.663485546382481   0.955421991431923   0.578007970619176   1.0
H3   H   0.830773985642719   0.720909792364267   0.516555979298996   1.0
H4   H   0.799729246817138   0.182849829006137   0.626281033633338   1.0
H5   H   0.394299081255539   0.354315544125001   0.248436634478356   1.0
H6   H   0.659477359780469   0.943991477148383   0.235428589016932   1.0
H7   H   0.251498076251218   0.901981115938215   0.434819973837359   1.0
H8   H   0.542804865722770   0.836526290606517   0.678306336482958   1.0
H9   H   0.283760860143773   0.372717112855879   0.522807245520207   1.0
H10   H   0.760634831861472   0.356905318755847   0.314457232642663   1.0
N14   N   0.568434720573030   0.195217517595910   0.306220160704522   1.0
