data_1
_audit_creation_method   'Generated by vasp2cif'
_cell_length_a    4.55163423019
_cell_length_b    3.70661924857
_cell_length_c    7.79575342031
_cell_angle_alpha    88.0860893776
_cell_angle_beta    83.7219752407
_cell_angle_gamma    69.1442484939
_symmetry_space_group_name_H-M    'P 1'
loop_
_atom_site_label
_atom_site_type_symbol
_atom_site_fract_x
_atom_site_fract_y
_atom_site_fract_z
_atom_site_occupancy
C1   C   0.393716834887457   0.618932218989642   0.507730108704905   1.0
C2   C   0.696840020288590   0.679182361602990   0.535421789329781   1.0
H3   H   0.882255683879777   0.405372343623768   0.555437748785614   1.0
H4   H   0.776592067342030   0.824123875544004   0.426055329109872   1.0
H5   H   0.644223392933945   0.312134486164695   0.279462757625737   1.0
H6   H   0.332575021731614   0.708272521026942   0.246486442707159   1.0
H7   H   0.347468148399656   0.414575454984835   0.599715890740818   1.0
H8   H   0.656009527419187   0.856685728999608   0.650428527039999   1.0
H9   H   0.192715545022587   0.885529356181060   0.521947067888213   1.0
H10   H   0.266608428064444   0.321653132769278   0.310821876322748   1.0
N14   N   0.413602039738755   0.473964364091323   0.326921425145564   1.0
