data_1
_audit_creation_method   'Generated by vasp2cif'
_cell_length_a    8.87837217355
_cell_length_b    3.68631570048
_cell_length_c    3.79423467758
_cell_angle_alpha    87.2207658306
_cell_angle_beta    84.2860977507
_cell_angle_gamma    80.8478681457
_symmetry_space_group_name_H-M    'P 1'
loop_
_atom_site_label
_atom_site_type_symbol
_atom_site_fract_x
_atom_site_fract_y
_atom_site_fract_z
_atom_site_occupancy
C1   C   0.374291442805927   0.792578980828303   0.369964411100859   1.0
C2   C   0.502037535918149   0.514730992314227   0.505066383695180   1.0
H3   H   0.544883303893293   0.296908540851860   0.321827306896942   1.0
H4   H   0.594113633991157   0.666872516281046   0.544337076409619   1.0
H5   H   0.229605547386562   0.464784367935088   0.145671860650751   1.0
H6   H   0.140572932016127   0.857121817301419   0.295716536348941   1.0
H7   H   0.343805505628104   0.012149956232122   0.554092731984859   1.0
H8   H   0.467409633001431   0.390444523501173   0.760726701351892   1.0
H9   H   0.409104953943093   0.904153996456202   0.109819261344057   1.0
H10   H   0.191796796959622   0.510417051609075   0.577894316578025   1.0
N14   N   0.227448819791292   0.646679214546225   0.345802397801407   1.0
