data_1
_audit_creation_method   'Generated by vasp2cif'
_cell_length_a    9.11438975098
_cell_length_b    3.89969260202
_cell_length_c    3.59086412811
_cell_angle_alpha    95.3175475561
_cell_angle_beta    74.4822885749
_cell_angle_gamma    89.3660445437
_symmetry_space_group_name_H-M    'P 1'
loop_
_atom_site_label
_atom_site_type_symbol
_atom_site_fract_x
_atom_site_fract_y
_atom_site_fract_z
_atom_site_occupancy
C1   C   0.603678617607741   0.730147367055075   0.605738159584810   1.0
C2   C   0.485912415362428   0.494298636808857   0.505591541369903   1.0
H3   H   0.434893264267622   0.342445586808864   0.742848198886314   1.0
H4   H   0.397803054181019   0.649232444046980   0.440292780352060   1.0
H5   H   0.732884861545692   0.365175028967563   0.817605962876634   1.0
H6   H   0.822217732526049   0.717385110414234   0.685644018330798   1.0
H7   H   0.641899065953062   0.909554533108661   0.390302798933803   1.0
H8   H   0.534041772360936   0.318831560292139   0.246618115975963   1.0
H9   H   0.556654840155197   0.873589658242267   0.887021433862778   1.0
H10   H   0.799771924435348   0.399957569453854   0.355395354451645   1.0
N14   N   0.746943303593071   0.542357416480655   0.616744468944113   1.0
