data_1
_audit_creation_method   'Generated by vasp2cif'
_cell_length_a    8.26003354025
_cell_length_b    4.0934713679
_cell_length_c    4.52251050689
_cell_angle_alpha    79.3992687461
_cell_angle_beta    104.195658444
_cell_angle_gamma    122.727847481
_symmetry_space_group_name_H-M    'P 1'
loop_
_atom_site_label
_atom_site_type_symbol
_atom_site_fract_x
_atom_site_fract_y
_atom_site_fract_z
_atom_site_occupancy
C1   C   0.628489881197718   0.716998641834702   0.466394881140586   1.0
C2   C   0.489949966763296   0.556150635746217   0.693358202682891   1.0
H3   H   0.354736494618330   0.292391482597308   0.613858953492539   1.0
H4   H   0.556716073093651   0.475805400461952   0.907980286100708   1.0
H5   H   0.727025734972423   0.352627320402445   0.653722875262435   1.0
H6   H   0.759469767746626   0.483573379641502   0.291688663032309   1.0
H7   H   0.568358645763336   0.790402005531152   0.241428606894101   1.0
H8   H   0.453576942266732   0.762282697414850   0.732028311676581   1.0
H9   H   0.770891220728122   0.966412456375282   0.540216532428833   1.0
H10   H   0.528674567592664   0.171584849738786   0.355158250152693   1.0
N14   N   0.663532686713163   0.408425795471207   0.436764515876619   1.0
