data_1
_audit_creation_method   'Generated by vasp2cif'
_cell_length_a    4.79111687342
_cell_length_b    4.93650710402
_cell_length_c    6.76338808651
_cell_angle_alpha    73.9170879489
_cell_angle_beta    89.842763201
_cell_angle_gamma    89.769359303
_symmetry_space_group_name_H-M    'P 1'
loop_
_atom_site_label
_atom_site_type_symbol
_atom_site_fract_x
_atom_site_fract_y
_atom_site_fract_z
_atom_site_occupancy
C1   C   0.654193431048434   0.698144965025456   0.405921320416930   1.0
C2   C   0.647375310051373   0.405693441449408   0.373847197012182   1.0
C3   C   0.652139861740146   0.433282060529663   0.144594674161638   1.0
H4   H   0.841576029119373   0.540010277106141   0.073924981111766   1.0
H5   H   0.648500347072357   0.229548883581437   0.114726671930200   1.0
H6   H   0.457549913045661   0.294057122726222   0.441717203462879   1.0
H7   H   0.829436223213023   0.282761490019979   0.446110216989346   1.0
H8   H   0.472912204507971   0.581721210483309   0.698801922539225   1.0
H9   H   0.651101436244119   0.880854734328935   0.655439899083895   1.0
H10   H   0.470242119898607   0.550555871576094   0.068770914718265   1.0
H11   H   0.843433804559034   0.810389371759278   0.342123550352710   1.0
H12   H   0.472435668286586   0.821635890086903   0.337856963853241   1.0
H13   H   0.825386083242876   0.578528632006282   0.701229503581494   1.0
N17   N   0.650481788419420   0.684422532832670   0.629654055068336   1.0
