data_1
_audit_creation_method   'Generated by vasp2cif'
_cell_length_a    4.93568114602
_cell_length_b    5.4091899877
_cell_length_c    5.59293905104
_cell_angle_alpha    99.9256144813
_cell_angle_beta    79.4578693538
_cell_angle_gamma    91.2361480231
_symmetry_space_group_name_H-M    'P 1'
loop_
_atom_site_label
_atom_site_type_symbol
_atom_site_fract_x
_atom_site_fract_y
_atom_site_fract_z
_atom_site_occupancy
C1   C   0.566786374168188   0.572378632294019   0.569095670161168   1.0
C2   C   0.514005119104937   0.471150361962458   0.808774151985929   1.0
C3   C   0.547092105282701   0.188571367540575   0.763291812850490   1.0
H4   H   0.756105970715801   0.134448098167304   0.666298932244665   1.0
H5   H   0.515970947445048   0.116373052276792   0.935349217455709   1.0
H6   H   0.306275100485898   0.523488302665100   0.907810846699682   1.0
H7   H   0.662425576647529   0.554318662150585   0.920020361462576   1.0
H8   H   0.349009214891517   0.288844440093904   0.366705139662812   1.0
H9   H   0.370338743442019   0.563999741280519   0.266743365085979   1.0
H10   H   0.396365475027032   0.098099410207162   0.657963272248388   1.0
H11   H   0.555911829397935   0.773974453874459   0.598495269487991   1.0
H12   H   0.761326832791838   0.505460524930413   0.454639459071792   1.0
H13   H   0.161152630490150   0.549775319647949   0.528888747673022   1.0
N17   N   0.346545557657279   0.481696375519370   0.420774611491218   1.0
