data_1
_audit_creation_method   'Generated by vasp2cif'
_cell_length_a    5.2191681395
_cell_length_b    5.22864993992
_cell_length_c    5.43653494757
_cell_angle_alpha    75.1435295612
_cell_angle_beta    90.4893202811
_cell_angle_gamma    84.6333612311
_symmetry_space_group_name_H-M    'P 1'
loop_
_atom_site_label
_atom_site_type_symbol
_atom_site_fract_x
_atom_site_fract_y
_atom_site_fract_z
_atom_site_occupancy
C1   C   0.608841356036121   0.624965938528744   0.375884988614367   1.0
C2   C   0.656282831379506   0.403581328469815   0.244703921168457   1.0
C3   C   0.405562347530774   0.288586809704117   0.206687743479097   1.0
H4   H   0.250230540302743   0.443388444386045   0.127017600394699   1.0
H5   H   0.429311166094207   0.156328102305542   0.083184783853595   1.0
H6   H   0.798872107258178   0.246263767393630   0.350333523377536   1.0
H7   H   0.744909475555084   0.482241684098480   0.063650817565981   1.0
H8   H   0.552050374446486   0.339332306028877   0.717813855354615   1.0
H9   H   0.280788351007430   0.515911884873687   0.598211181466857   1.0
H10   H   0.340085731927928   0.172400868346120   0.387038092027865   1.0
H11   H   0.785192682794023   0.698099374095634   0.419866380497683   1.0
H12   H   0.480073660015002   0.786071333838500   0.261575190055660   1.0
H13   H   0.503532048230059   0.657743862523497   0.731930168123343   1.0
N17   N   0.475756829863370   0.527465970506045   0.622361703120629   1.0
