data_1
_audit_creation_method   'Generated by vasp2cif'
_cell_length_a    5.22455763143
_cell_length_b    4.99439215506
_cell_length_c    5.64194849216
_cell_angle_alpha    82.8409533565
_cell_angle_beta    80.0656111901
_cell_angle_gamma    81.9940606307
_symmetry_space_group_name_H-M    'P 1'
loop_
_atom_site_label
_atom_site_type_symbol
_atom_site_fract_x
_atom_site_fract_y
_atom_site_fract_z
_atom_site_occupancy
C1   C   0.545763438715402   0.643840893977440   0.355220163722222   1.0
C2   C   0.555455372256885   0.466678753174845   0.154780115971562   1.0
C3   C   0.359485633386816   0.262756417375066   0.225302678413705   1.0
H4   H   0.162215841939805   0.363558507709113   0.218479770296838   1.0
H5   H   0.399621787108876   0.107226426126912   0.102627197394335   1.0
H6   H   0.755141994394905   0.368053731405061   0.106817142687262   1.0
H7   H   0.509507703109376   0.598508972069729   0.995520596765687   1.0
H8   H   0.898072865979124   0.478044865205928   0.468156256124943   1.0
H9   H   0.647320519173585   0.315761428988328   0.619505722009736   1.0
H10   H   0.370310748989480   0.164555805650019   0.407289965183437   1.0
H11   H   0.631412373508263   0.828742361618815   0.293259779082396   1.0
H12   H   0.345395991157684   0.685940856938550   0.443278064901795   1.0
H13   H   0.693372770894995   0.631118993625859   0.673716078468169   1.0
N17   N   0.703865090363540   0.502684043652926   0.542266304547869   1.0
