data_1
_audit_creation_method   'Generated by vasp2cif'
_cell_length_a    9.54396467374
_cell_length_b    3.89859961135
_cell_length_c    4.5381545678
_cell_angle_alpha    64.6688006541
_cell_angle_beta    81.6229148639
_cell_angle_gamma    68.602725128
_symmetry_space_group_name_H-M    'P 1'
loop_
_atom_site_label
_atom_site_type_symbol
_atom_site_fract_x
_atom_site_fract_y
_atom_site_fract_z
_atom_site_occupancy
C1   C   0.895602947048523   0.331955140818863   0.325748441686017   1.0
C2   C   0.756579048508677   0.261303538181821   0.514692983354514   1.0
C3   C   0.643835457477287   0.314927042136944   0.278370274697352   1.0
H4   H   0.537289942674839   0.302576908662893   0.395925613870347   1.0
H5   H   0.686389748986656   0.081597096694608   0.184196661505453   1.0
H6   H   0.784584696418875   0.959205324017418   0.711026934240316   1.0
H7   H   0.704722224724861   0.476532788836835   0.626243789772218   1.0
H8   H   0.070840603723802   0.006327644782495   0.667814915303204   1.0
H9   H   0.975745788755198   0.453773681277568   0.675613349145799   1.0
H10   H   0.950488082894708   0.114566102369452   0.217889711767967   1.0
H11   H   0.624189064258459   0.603468812345113   0.067559694816367   1.0
H12   H   0.863276584938163   0.629823084001217   0.128384009812002   1.0
H13   H   0.089930100158739   0.441499879707500   0.373091013175404   1.0
N17   N   0.013888471151013   0.310414982862746   0.520885513250349   1.0
