data_1
_audit_creation_method   'Generated by vasp2cif'
_cell_length_a    4.6695187274
_cell_length_b    3.66575041464
_cell_length_c    8.86416804862
_cell_angle_alpha    90.4155136293
_cell_angle_beta    109.36489474
_cell_angle_gamma    98.5195436674
_symmetry_space_group_name_H-M    'P 1'
loop_
_atom_site_label
_atom_site_type_symbol
_atom_site_fract_x
_atom_site_fract_y
_atom_site_fract_z
_atom_site_occupancy
C1   C   0.039405911922430   0.582393346123730   0.446820998188869   1.0
C2   C   0.702937577720064   0.621534867327902   0.408587829691562   1.0
C3   C   0.567230960230759   0.763534113308452   0.242704688921243   1.0
H4   H   0.717871822706833   0.998830823085420   0.222452925733059   1.0
H5   H   0.347964177525199   0.851530208477968   0.228343242734901   1.0
H6   H   0.573010787914008   0.353453460514927   0.416166851685397   1.0
H7   H   0.683919266109889   0.805948337766864   0.500877894624509   1.0
H8   H   0.000130853505674   0.274166593245837   0.641800831785382   1.0
H9   H   0.220722558332866   0.674519871457264   0.699613887256568   1.0
H10   H   0.068719311930181   0.385767772898348   0.362801132458536   1.0
H11   H   0.525799853735563   0.544444481093045   0.150526647504087   1.0
H12   H   0.179631769320380   0.844255472124750   0.441544216284441   1.0
H13   H   0.362560905702246   0.334084942738933   0.633596835475018   1.0
N17   N   0.166393121201352   0.455990911240633   0.613958276487466   1.0
