data_1
_audit_creation_method   'Generated by vasp2cif'
_cell_length_a    5.1332663006
_cell_length_b    4.68828275045
_cell_length_c    6.58675831802
_cell_angle_alpha    89.8925489842
_cell_angle_beta    114.243370702
_cell_angle_gamma    78.3714356925
_symmetry_space_group_name_H-M    'P 1'
loop_
_atom_site_label
_atom_site_type_symbol
_atom_site_fract_x
_atom_site_fract_y
_atom_site_fract_z
_atom_site_occupancy
C1   C   0.148511519463376   0.362786735408967   0.575771149663503   1.0
C2   C   0.301032129644369   0.615901437187524   0.629940583424208   1.0
C3   C   0.571952564518710   0.550354606240532   0.851182823314886   1.0
H4   H   0.548241875141102   0.400966635727492   0.966275982536558   1.0
H5   H   0.609653604699197   0.750845726218387   0.928125512389954   1.0
H6   H   0.354172650059141   0.670815345305279   0.493140349277574   1.0
H7   H   0.144391527799215   0.806242532422750   0.635070067643248   1.0
H8   H   0.806241612256201   0.599452784304027   0.291626032261362   1.0
H9   H   0.745855802618166   0.628888000428603   0.516681130829305   1.0
H10   H   0.239192406430313   0.200182253278399   0.492024706890589   1.0
H11   H   0.765713165551553   0.452596063282598   0.826514298285680   1.0
H12   H   0.161238884867125   0.257258680094999   0.727425233192349   1.0
H13   H   0.715858182630150   0.313287308079836   0.384746773687191   1.0
N17   N   0.828051791170935   0.478575270585701   0.430968938486679   1.0
