data_1
_audit_creation_method   'Generated by vasp2cif'
_cell_length_a    5.59591238767
_cell_length_b    6.70424283209
_cell_length_c    4.70335649105
_cell_angle_alpha    83.0622019778
_cell_angle_beta    93.5341045951
_cell_angle_gamma    105.222852955
_symmetry_space_group_name_H-M    'P 1'
loop_
_atom_site_label
_atom_site_type_symbol
_atom_site_fract_x
_atom_site_fract_y
_atom_site_fract_z
_atom_site_occupancy
C1   C   0.231105425529641   0.718210372242673   0.552397189993222   1.0
C2   C   0.457412770879834   0.242105391497205   0.416995390383015   1.0
C3   C   0.317805491704519   0.408729495903607   0.354410333745300   1.0
C4   C   0.291912700309524   0.509080762132690   0.621954211091797   1.0
H5   H   0.802171224031127   0.442696267616107   0.329248974619752   1.0
H6   H   0.815114083791897   0.218554053580796   0.516540661821772   1.0
H7   H   0.751684848274685   0.408801733356626   0.686748818380948   1.0
H8   H   0.362052654665575   0.820135042334719   0.401941781913592   1.0
H9   H   0.047910488291151   0.704530658878426   0.452617656321941   1.0
H10   H   0.235288081069356   0.795581942412284   0.743834182546934   1.0
H11   H   0.139121900825174   0.337911672206523   0.255353795234200   1.0
H12   H   0.412837192195838   0.528303615508435   0.190812656277288   1.0
H13   H   0.157760592310275   0.401673575346734   0.764298374058832   1.0
H14   H   0.466889250756054   0.531723761779205   0.745624082230016   1.0
H15   H   0.374490310620388   0.129251647008637   0.592538991060806   1.0
H16   H   0.459482800885283   0.163762221439718   0.228642216753577   1.0
N20   N   0.725379025455787   0.336414922886121   0.500211560962583   1.0
