data_1
_audit_creation_method   'Generated by vasp2cif'
_cell_length_a    6.41171671788
_cell_length_b    4.88787547403
_cell_length_c    4.70344603207
_cell_angle_alpha    82.8686417146
_cell_angle_beta    87.8445551374
_cell_angle_gamma    91.1637853897
_symmetry_space_group_name_H-M    'P 1'
loop_
_atom_site_label
_atom_site_type_symbol
_atom_site_fract_x
_atom_site_fract_y
_atom_site_fract_z
_atom_site_occupancy
C1   C   0.401829486573909   0.691904424800491   0.119114926758250   1.0
C2   C   0.558598859909473   0.912870571419255   0.176730364648925   1.0
C3   C   0.474209516418213   0.059181776398788   0.420168341811660   1.0
H4   H   0.446477557038058   0.910403450353122   0.611239393311422   1.0
H5   H   0.578727028861678   0.222108570793758   0.470799217355584   1.0
H6   H   0.324396407915906   0.141478052976197   0.356682719051953   1.0
H7   H   0.868165641676718   0.938646317001485   0.298555655307233   1.0
H8   H   0.596145569114192   0.058930408827322   0.986728505885857   1.0
H9   H   0.465369207094199   0.559594931615834   0.968542893638784   1.0
H10   H   0.261334170944110   0.789477525085232   0.036905217936813   1.0
H11   H   0.358001042746864   0.565259067784254   0.320003892793906   1.0
H12   H   0.822721994321228   0.685078186648141   0.098815073477851   1.0
H13   H   0.742786608785792   0.647806004780918   0.448894620384529   1.0
N17   N   0.762628261777500   0.784868912431605   0.261804384819598   1.0
