data_1
_audit_creation_method   'Generated by vasp2cif'
_cell_length_a    4.87145109376
_cell_length_b    5.84388683439
_cell_length_c    5.28456502766
_cell_angle_alpha    89.6267439008
_cell_angle_beta    99.3790660073
_cell_angle_gamma    77.6574774232
_symmetry_space_group_name_H-M    'P 1'
loop_
_atom_site_label
_atom_site_type_symbol
_atom_site_fract_x
_atom_site_fract_y
_atom_site_fract_z
_atom_site_occupancy
C1   C   0.229737291241413   0.762664684750419   0.556270973174477   1.0
C2   C   0.319174224180884   0.880403669423359   0.337741319054985   1.0
C3   C   0.532079766787604   0.031026122622755   0.422779595462465   1.0
H4   H   0.418691122482173   0.199239239086026   0.478690162535500   1.0
H5   H   0.684390017541460   0.943709781151817   0.587087594870638   1.0
H6   H   0.643289402046747   0.063271623170742   0.268594887343632   1.0
H7   H   0.560150910993784   0.748206741370979   0.049199463961948   1.0
H8   H   0.129246718456408   0.982016545947104   0.216680429320618   1.0
H9   H   0.157135608887572   0.890103039927176   0.693021577980936   1.0
H10   H   0.410716589015635   0.634990664957350   0.658523347316518   1.0
H11   H   0.061469092705956   0.671302924669874   0.488745156301093   1.0
H12   H   0.286844688067660   0.619292298099460   0.072892572978134   1.0
H13   H   0.594415650996005   0.556367271208579   0.285117912874234   1.0
N17   N   0.444854455997394   0.689815264745398   0.174621912865099   1.0
