data_1
_audit_creation_method   'Generated by vasp2cif'
_cell_length_a    5.07565602585
_cell_length_b    4.75999339728
_cell_length_c    6.19989640105
_cell_angle_alpha    90.4955421995
_cell_angle_beta    96.0039717071
_cell_angle_gamma    79.7360992397
_symmetry_space_group_name_H-M    'P 1'
loop_
_atom_site_label
_atom_site_type_symbol
_atom_site_fract_x
_atom_site_fract_y
_atom_site_fract_z
_atom_site_occupancy
C1   C   0.646225992283689   0.717201794560118   0.600923465043252   1.0
C2   C   0.472227142275955   0.510420655485987   0.662110637207412   1.0
C3   C   0.314782163315542   0.613390818845609   0.850985931803301   1.0
H4   H   0.448122070947271   0.633430380022716   0.996987867641231   1.0
H5   H   0.178374169908835   0.471082004502833   0.884689895731668   1.0
H6   H   0.199946494278507   0.825255298213797   0.806634449084214   1.0
H7   H   0.360481200199402   0.404529565061417   0.333697868098213   1.0
H8   H   0.592275005479323   0.297086620346150   0.689762571535873   1.0
H9   H   0.803560068419785   0.730477529051818   0.731124877964419   1.0
H10   H   0.736343914700193   0.651384410580064   0.453430737463449   1.0
H11   H   0.523179479306222   0.927799721395047   0.569888880378159   1.0
H12   H   0.143282776025117   0.347470217803412   0.496918475541939   1.0
H13   H   0.158337282176504   0.688037042326492   0.436222348196466   1.0
N17   N   0.271717743158824   0.488133001668238   0.469382247198723   1.0
