data_1
_audit_creation_method   'Generated by vasp2cif'
_cell_length_a    6.29152226512
_cell_length_b    4.79018000339
_cell_length_c    4.94376320224
_cell_angle_alpha    100.299151433
_cell_angle_beta    85.3867250151
_cell_angle_gamma    93.263814596
_symmetry_space_group_name_H-M    'P 1'
loop_
_atom_site_label
_atom_site_type_symbol
_atom_site_fract_x
_atom_site_fract_y
_atom_site_fract_z
_atom_site_occupancy
C1   C   0.575029665034239   0.805755693736517   0.272739735650313   1.0
C2   C   0.598686998693506   0.558049671154566   0.416913724229098   1.0
C3   C   0.798496880514738   0.589398150826632   0.573324302996842   1.0
H4   H   0.941002028467031   0.608875730740860   0.437392648800629   1.0
H5   H   0.811535534589559   0.415238776262417   0.684790542810589   1.0
H6   H   0.788494130426236   0.787591515762344   0.720201587483067   1.0
H7   H   0.271516610080247   0.487518778247176   0.538051191980109   1.0
H8   H   0.586622524031948   0.358990060981246   0.271733413969430   1.0
H9   H   0.685994483749226   0.790742106052218   0.091829435973626   1.0
H10   H   0.414065741969298   0.806867201745647   0.209814279401230   1.0
H11   H   0.608176474150208   0.003666347691131   0.412832672292137   1.0
H12   H   0.430508283864160   0.411390080825632   0.756193758349762   1.0
H13   H   0.399019333531811   0.757654606342312   0.741981698329914   1.0
N17   N   0.411959458558819   0.556113495457462   0.626834894673951   1.0
