data_1
_audit_creation_method   'Generated by vasp2cif'
_cell_length_a    4.09003074402
_cell_length_b    4.6928284017
_cell_length_c    8.58153719344
_cell_angle_alpha    111.72136214
_cell_angle_beta    91.0968593264
_cell_angle_gamma    113.77371346
_symmetry_space_group_name_H-M    'P 1'
loop_
_atom_site_label
_atom_site_type_symbol
_atom_site_fract_x
_atom_site_fract_y
_atom_site_fract_z
_atom_site_occupancy
C1   C   0.666855347845452   0.966144354792757   0.589531196406265   1.0
C2   C   0.616097351304633   0.633084916524796   0.596484623049188   1.0
C3   C   0.481000411879113   0.627695742984974   0.759791285947043   1.0
H4   H   0.700669764375217   0.833092629839405   0.866112605897649   1.0
H5   H   0.413432233627312   0.391285257114572   0.774364696622796   1.0
H6   H   0.250862270689534   0.689622772023811   0.772705087541042   1.0
H7   H   0.535717740338084   0.318162348357420   0.339290321085823   1.0
H8   H   0.871919673687394   0.614689979675692   0.598164982687845   1.0
H9   H   0.718950123828617   0.972158311747110   0.466973891388077   1.0
H10   H   0.418798023265707   0.993547165577010   0.610946217199524   1.0
H11   H   0.886102323725797   0.175499039202353   0.692919728891355   1.0
H12   H   0.242969209158371   0.105388018200727   0.432056955224393   1.0
H13   H   0.181087900408701   0.401377944791727   0.383486899804517   1.0
N17   N   0.371986857014351   0.342389482493818   0.429374420447424   1.0
