data_1
_audit_creation_method   'Generated by vasp2cif'
_cell_length_a    5.69811203006
_cell_length_b    4.38146909298
_cell_length_c    6.54375322036
_cell_angle_alpha    83.8118083547
_cell_angle_beta    83.7775809967
_cell_angle_gamma    66.9050626075
_symmetry_space_group_name_H-M    'P 1'
loop_
_atom_site_label
_atom_site_type_symbol
_atom_site_fract_x
_atom_site_fract_y
_atom_site_fract_z
_atom_site_occupancy
C1   C   0.594669579772688   0.289567734544206   0.315677307983451   1.0
C2   C   0.616194575532093   0.953492630635042   0.420379665423068   1.0
C3   C   0.859381301512639   0.775070069527855   0.531222057848778   1.0
H4   H   0.027335108999100   0.739132399931229   0.424988429973447   1.0
H5   H   0.867319775635730   0.536492536674010   0.605010609991820   1.0
H6   H   0.864546244892988   0.934299057951477   0.647086926373759   1.0
H7   H   0.231493333135840   0.075534934205938   0.497221285095229   1.0
H8   H   0.594107171209077   0.809651237067845   0.305800411929835   1.0
H9   H   0.735047971052069   0.359299934046588   0.374855264937775   1.0
H10   H   0.631652141490127   0.278073975318386   0.148709634112203   1.0
H11   H   0.404946243401848   0.481073532467123   0.344328669021563   1.0
H12   H   0.409756482625248   0.774760507740729   0.664023767013826   1.0
H13   H   0.380997145382226   0.165830815067085   0.679968409543597   1.0
N17   N   0.393682120713196   0.994571650311488   0.576934885872837   1.0
