data_1
_audit_creation_method   'Generated by vasp2cif'
_cell_length_a    5.62359035791
_cell_length_b    3.85910073035
_cell_length_c    7.43066732311
_cell_angle_alpha    102.944497056
_cell_angle_beta    85.4568152627
_cell_angle_gamma    112.481736393
_symmetry_space_group_name_H-M    'P 1'
loop_
_atom_site_label
_atom_site_type_symbol
_atom_site_fract_x
_atom_site_fract_y
_atom_site_fract_z
_atom_site_occupancy
C1   C   0.276721888517235   0.528223145623698   0.288546775984297   1.0
C2   C   0.456921436519104   0.442568740083183   0.398376621540310   1.0
C3   C   0.671383078998188   0.390377505297750   0.270872644768484   1.0
H4   H   0.594518808542519   0.229704862706118   0.134210210603380   1.0
H5   H   0.775669329673565   0.247577302964019   0.322006682527373   1.0
H6   H   0.807665246258745   0.673733624293643   0.254949292134528   1.0
H7   H   0.442612742278860   0.878087602288884   0.631941229740658   1.0
H8   H   0.345766446053810   0.191167277293994   0.453439199246494   1.0
H9   H   0.386316962505404   0.708790481736982   0.193930577856849   1.0
H10   H   0.151378803642765   0.255238833248687   0.205816886173505   1.0
H11   H   0.154835857270019   0.652870079654630   0.376521475719574   1.0
H12   H   0.615293459201117   0.638180100259280   0.668467521717606   1.0
H13   H   0.735396499441578   0.974785254105190   0.547481820139856   1.0
N17   N   0.568012439387034   0.748568103777658   0.568497862833452   1.0
