data_1
_audit_creation_method   'Generated by vasp2cif'
_cell_length_a    8.07046758075
_cell_length_b    3.98507660939
_cell_length_c    4.75718318106
_cell_angle_alpha    68.4026798205
_cell_angle_beta    80.6430963326
_cell_angle_gamma    76.5625748902
_symmetry_space_group_name_H-M    'P 1'
loop_
_atom_site_label
_atom_site_type_symbol
_atom_site_fract_x
_atom_site_fract_y
_atom_site_fract_z
_atom_site_occupancy
C1   C   0.546995716923824   0.887236251241688   0.232019155491090   1.0
C2   C   0.544019873834472   0.915707768825643   0.542802024010652   1.0
C3   C   0.710886840878799   0.022716083515474   0.564013271919440   1.0
H4   H   0.802217235370633   0.771230082484997   0.662117220504726   1.0
H5   H   0.701771757147090   0.192585407244407   0.700635191490481   1.0
H6   H   0.765523758868974   0.164861905159949   0.337790450031592   1.0
H7   H   0.364326152098322   0.266494340312862   0.765572252188156   1.0
H8   H   0.529636447475926   0.660068767721369   0.724578283777408   1.0
H9   H   0.426793649528570   0.840569520377358   0.193223043891055   1.0
H10   H   0.569736405726188   0.147548968263582   0.064961702563314   1.0
H11   H   0.650948317224082   0.673681477001884   0.198285722350038   1.0
H12   H   0.359245431540673   0.400903104212707   0.388791301091983   1.0
H13   H   0.279159908445570   0.038905000986527   0.608000161781828   1.0
N17   N   0.378702300963408   0.175682553459300   0.583241810631789   1.0
