data_1
_audit_creation_method   'Generated by vasp2cif'
_cell_length_a    5.29811732639
_cell_length_b    3.84372290167
_cell_length_c    7.53082700188
_cell_angle_alpha    75.2687067547
_cell_angle_beta    87.3892894113
_cell_angle_gamma    102.313563458
_symmetry_space_group_name_H-M    'P 1'
loop_
_atom_site_label
_atom_site_type_symbol
_atom_site_fract_x
_atom_site_fract_y
_atom_site_fract_z
_atom_site_occupancy
C1   C   0.478443312817699   0.524626388724354   0.683580768192815   1.0
C2   C   0.422177377071568   0.389621167836958   0.513192513849373   1.0
C3   C   0.290788021998841   0.621359710732364   0.367193350839191   1.0
H4   H   0.149920219751755   0.725103513475547   0.435610937559110   1.0
H5   H   0.191858646965356   0.444556640998851   0.287528204681838   1.0
H6   H   0.422444706480506   0.853595939768535   0.268424345848217   1.0
H7   H   0.661914497208907   0.200395570459680   0.338444304305730   1.0
H8   H   0.299737581486147   0.112543706504656   0.557269926388175   1.0
H9   H   0.488022654619749   0.297682251341740   0.801334191729287   1.0
H10   H   0.662910437729617   0.727501520759406   0.661681018067825   1.0
H11   H   0.327532974749644   0.652181518638991   0.719470683072084   1.0
H12   H   0.780114614072271   0.622012432610484   0.352336903460211   1.0
H13   H   0.788707981192223   0.264266985568459   0.535520858565886   1.0
N17   N   0.679927427767381   0.359323170015036   0.430095872316740   1.0
