data_1
_audit_creation_method   'Generated by vasp2cif'
_cell_length_a    5.60920370784
_cell_length_b    4.82256809512
_cell_length_c    4.78739039046
_cell_angle_alpha    82.5436688876
_cell_angle_beta    100.542826658
_cell_angle_gamma    99.8521869932
_symmetry_space_group_name_H-M    'P 1'
loop_
_atom_site_label
_atom_site_type_symbol
_atom_site_fract_x
_atom_site_fract_y
_atom_site_fract_z
_atom_site_occupancy
H4   H   0.489336448712535   0.694108141813011   0.263980796379023   1.0
H5   H   0.770919586109763   0.348467839660188   0.358233872473960   1.0
H6   H   0.653179348557750   0.676466377530261   0.582352694564477   1.0
H7   H   0.143842495465250   0.376944735500921   0.474777582955284   1.0
H8   H   0.341240951995872   0.408963511978257   0.810028602656210   1.0
H9   H   0.229136361874488   0.710062835568891   0.615273610097240   1.0
H10   H   0.468301560438221   0.217427936559282   0.217660654939301   1.0
H11   H   0.574675878452723   0.151355050950706   0.593154132860207   1.0
C12   C   0.287891827592354   0.512272760343450   0.598198287156855   1.0
C13   C   0.586416860300659   0.299834565328219   0.404049409988787   1.0
N15   N   0.508609691001439   0.566125657586632   0.456977039902590   1.0
