data_1
_audit_creation_method   'Generated by vasp2cif'
_cell_length_a    5.23082052969
_cell_length_b    4.95407529031
_cell_length_c    4.96187300831
_cell_angle_alpha    77.3367523735
_cell_angle_beta    102.60853571
_cell_angle_gamma    96.8118431604
_symmetry_space_group_name_H-M    'P 1'
loop_
_atom_site_label
_atom_site_type_symbol
_atom_site_fract_x
_atom_site_fract_y
_atom_site_fract_z
_atom_site_occupancy
H4   H   0.550611178358103   0.729049897963712   0.341270575753093   1.0
H5   H   0.695926247845904   0.325069188827626   0.246107197199770   1.0
H6   H   0.707228009402925   0.536987008105143   0.642964839399959   1.0
H7   H   0.128835989050316   0.490341452588609   0.461909282088044   1.0
H8   H   0.326121934532310   0.330383567744604   0.777881714217592   1.0
H9   H   0.305789359464846   0.697309865318793   0.708690826282606   1.0
H10   H   0.349828658448978   0.342089009309014   0.167592955215916   1.0
H11   H   0.501840941924868   0.120123847668218   0.482549389965215   1.0
C12   C   0.305298903187392   0.518125659152631   0.618669843711203   1.0
C13   C   0.522491651925513   0.313403806583047   0.333277329351610   1.0
N15   N   0.538930822757173   0.544645823360369   0.485521453464976   1.0
