data_1
_audit_creation_method   'Generated by vasp2cif'
_cell_length_a    5.12049619649
_cell_length_b    4.91407069159
_cell_length_c    5.09976786099
_cell_angle_alpha    83.7478761779
_cell_angle_beta    78.7608866517
_cell_angle_gamma    76.170356991
_symmetry_space_group_name_H-M    'P 1'
loop_
_atom_site_label
_atom_site_type_symbol
_atom_site_fract_x
_atom_site_fract_y
_atom_site_fract_z
_atom_site_occupancy
H4   H   0.380669242473395   0.768888325100768   0.371726977097993   1.0
H5   H   0.262250841896275   0.355026867899468   0.268102343409112   1.0
H6   H   0.662544059360435   0.557920102488858   0.210315388279213   1.0
H7   H   0.533690015476154   0.549205101637511   0.798906572126199   1.0
H8   H   0.831863382953657   0.382071832170048   0.587676079110452   1.0
H9   H   0.752537400445284   0.754661371608854   0.593680787236067   1.0
H10   H   0.220992407861424   0.396526402316013   0.617855508161306   1.0
H11   H   0.510294925953659   0.154294298428880   0.457362454623258   1.0
C12   C   0.670764320543775   0.569403840018190   0.610205319843239   1.0
C13   C   0.365378755214550   0.352038646051085   0.433848550493984   1.0
N15   N   0.519505174985056   0.579464683917003   0.386058631787478   1.0
