data_1
_audit_creation_method   'Generated by vasp2cif'
_cell_length_a    4.64063029406
_cell_length_b    3.66260665334
_cell_length_c    7.41077704294
_cell_angle_alpha    94.5810645323
_cell_angle_beta    81.5556281469
_cell_angle_gamma    96.6158077873
_symmetry_space_group_name_H-M    'P 1'
loop_
_atom_site_label
_atom_site_type_symbol
_atom_site_fract_x
_atom_site_fract_y
_atom_site_fract_z
_atom_site_occupancy
H4   H   0.851484741063491   0.320846102026873   0.440124795843575   1.0
H5   H   0.314762724847900   0.391671556841977   0.555675873739547   1.0
H6   H   0.416883331652615   0.819150799367550   0.613538068113307   1.0
H7   H   0.482761878825215   0.465921358920812   0.238393582341848   1.0
H8   H   0.274297812139683   0.833810715809839   0.325672855817116   1.0
H9   H   0.662680065252600   0.908992461472094   0.294437641573282   1.0
H10   H   0.711856020371396   0.331566053171991   0.679589389701147   1.0
H11   H   0.904918638813410   0.732954965580252   0.581403089282007   1.0
C12   C   0.475032269286626   0.711287041014550   0.330472071845520   1.0
C13   C   0.758891772480248   0.486238093004149   0.557788003165081   1.0
N15   N   0.476070188526402   0.603892537392067   0.520847057634841   1.0
