data_1
_audit_creation_method   'Generated by vasp2cif'
_cell_length_a    4.57843001059
_cell_length_b    3.6104057717
_cell_length_c    7.47417136188
_cell_angle_alpha    83.5161810766
_cell_angle_beta    82.4129731259
_cell_angle_gamma    86.9773701753
_symmetry_space_group_name_H-M    'P 1'
loop_
_atom_site_label
_atom_site_type_symbol
_atom_site_fract_x
_atom_site_fract_y
_atom_site_fract_z
_atom_site_occupancy
H4   H   0.155460692604635   0.184298041996100   0.537664297475535   1.0
H5   H   0.704312691909626   0.252205270128176   0.488774234657344   1.0
H6   H   0.647622889183864   0.685095753075434   0.408078480969522   1.0
H7   H   0.478800323254494   0.349103974168538   0.784608491871905   1.0
H8   H   0.703575999061348   0.736335133544888   0.703008870383236   1.0
H9   H   0.317204082207687   0.781066324363253   0.697583080991031   1.0
H10   H   0.341108675031774   0.227634133874639   0.309311249154287   1.0
H11   H   0.149474945968344   0.620384585025937   0.400878010966414   1.0
C12   C   0.508758093861960   0.592109040205349   0.685731306253388   1.0
C13   C   0.277335763979705   0.364871083155865   0.431284521807645   1.0
N15   N   0.552054963491503   0.470272147352208   0.498909700870250   1.0
