data_1
_audit_creation_method   'Generated by vasp2cif'
_cell_length_a    5.09972235729
_cell_length_b    5.13483597985
_cell_length_c    5.12119573295
_cell_angle_alpha    92.743606205
_cell_angle_beta    102.233889554
_cell_angle_gamma    103.436718793
_symmetry_space_group_name_H-M    'P 1'
loop_
_atom_site_label
_atom_site_type_symbol
_atom_site_fract_x
_atom_site_fract_y
_atom_site_fract_z
_atom_site_occupancy
C1   C   0.686916808673705   0.505226876973128   0.519256040661511   1.0
C2   C   0.496100758660082   0.624226023151999   0.640330082488968   1.0
H3   H   0.284333970104968   0.593804916574940   0.942563141816201   1.0
H4   H   0.271585641959889   0.912839171811813   0.605941889990676   1.0
H5   H   0.896848088686857   0.579506714236894   0.640005882353563   1.0
H6   H   0.685441935507572   0.556891435016063   0.317106901937034   1.0
H7   H   0.635505767082068   0.288687339618390   0.520504886565925   1.0
H8   H   0.454390482709767   0.888263605423909   0.362407749559269   1.0
H9   H   0.474418732248517   0.359497619903874   0.920484134878923   1.0
N13   N   0.430188509519836   0.533943952189307   0.860837904744690   1.0
N14   N   0.414553327090308   0.831429332754896   0.540654552067376   1.0
