data_1
_audit_creation_method   'Generated by vasp2cif'
_cell_length_a    5.05642637545
_cell_length_b    5.22286953506
_cell_length_c    5.07773563284
_cell_angle_alpha    82.3389753312
_cell_angle_beta    105.858694345
_cell_angle_gamma    88.8442950961
_symmetry_space_group_name_H-M    'P 1'
loop_
_atom_site_label
_atom_site_type_symbol
_atom_site_fract_x
_atom_site_fract_y
_atom_site_fract_z
_atom_site_occupancy
C1   C   0.625924977990223   0.495938859402372   0.385639128447167   1.0
C2   C   0.496014438904488   0.630452777415883   0.561298786273476   1.0
H3   H   0.231640216625010   0.604575341176293   0.809012372190878   1.0
H4   H   0.515325459321829   0.952613012934023   0.747309099279384   1.0
H5   H   0.614174741989117   0.621076744597289   0.193432689983212   1.0
H6   H   0.534947456715436   0.316118808499816   0.341077152164516   1.0
H7   H   0.843211681992905   0.455256253112616   0.491877471620498   1.0
H8   H   0.727682411626688   0.935732122689046   0.533562386685588   1.0
H9   H   0.265444934127395   0.336046348429477   0.648141094455369   1.0
N13   N   0.322161673392266   0.516952647626255   0.683064755020013   1.0
N14   N   0.558199047415563   0.872584237763704   0.588634504507091   1.0
