data_1
_audit_creation_method   'Generated by vasp2cif'
_cell_length_a    4.62690261814
_cell_length_b    3.49971344066
_cell_length_c    8.11463260029
_cell_angle_alpha    86.6845322187
_cell_angle_beta    90.921152343
_cell_angle_gamma    96.3670738144
_symmetry_space_group_name_H-M    'P 1'
loop_
_atom_site_label
_atom_site_type_symbol
_atom_site_fract_x
_atom_site_fract_y
_atom_site_fract_z
_atom_site_occupancy
C1   C   0.423265452979753   0.898992979639145   0.631923760069640   1.0
C2   C   0.560360022189434   0.804762362290186   0.476593272283082   1.0
H3   H   0.267958145555792   0.050103712015917   0.322084717772115   1.0
H4   H   0.519947896940037   0.806337051175952   0.225558380631044   1.0
H5   H   0.347890039794357   0.631119021636595   0.700634920607322   1.0
H6   H   0.579916422670097   0.060236491914244   0.710051406947642   1.0
H7   H   0.238016852632088   0.058376572370123   0.605611499218337   1.0
H8   H   0.879659523669290   0.519585322787476   0.382991493946460   1.0
H9   H   0.869077525540333   0.533023333150821   0.599714186626126   1.0
N13   N   0.439096887831751   0.888322263999196   0.332829360083191   1.0
N14   N   0.799680377805093   0.628609720385631   0.485853026916944   1.0
