data_1
_audit_creation_method   'Generated by vasp2cif'
_cell_length_a    8.4964711774
_cell_length_b    3.57073444747
_cell_length_c    4.56029855845
_cell_angle_alpha    100.824124218
_cell_angle_beta    87.5261962835
_cell_angle_gamma    105.362260369
_symmetry_space_group_name_H-M    'P 1'
loop_
_atom_site_label
_atom_site_type_symbol
_atom_site_fract_x
_atom_site_fract_y
_atom_site_fract_z
_atom_site_occupancy
C1   C   0.632899078986536   0.116662709450138   0.569960554646801   1.0
C2   C   0.489145599922834   0.811983124684470   0.420370334594152   1.0
H3   H   0.327884263354601   0.847234103880651   0.766864388801660   1.0
H4   H   0.261027972176027   0.453852255437096   0.476483975282195   1.0
H5   H   0.738775166243016   0.995650735105808   0.555319906521759   1.0
H6   H   0.665968815141365   0.369886383145870   0.458524255601773   1.0
H7   H   0.609855066397209   0.208733612977280   0.803155099964891   1.0
H8   H   0.408619749769105   0.437058362129151   0.038589710589207   1.0
H9   H   0.618680713544503   0.723600631271796   0.046517515932663   1.0
N13   N   0.353963560590189   0.686993009395614   0.568862560959763   1.0
N14   N   0.504166550726178   0.657927925100164   0.137752286081341   1.0
