data_1
_audit_creation_method   'Generated by vasp2cif'
_cell_length_a    4.83116299796
_cell_length_b    4.70789365329
_cell_length_c    4.70893474227
_cell_angle_alpha    94.9612802027
_cell_angle_beta    101.765821679
_cell_angle_gamma    87.3060478656
_symmetry_space_group_name_H-M    'P 1'
loop_
_atom_site_label
_atom_site_type_symbol
_atom_site_fract_x
_atom_site_fract_y
_atom_site_fract_z
_atom_site_occupancy
H4   H   0.488846593080600   0.402419618353124   0.200359798422975   1.0
H5   H   0.708414621435915   0.383114313495819   0.515039450020699   1.0
H6   H   0.607207187123533   0.707316745177019   0.407054078616324   1.0
H7   H   0.272902978244521   0.271482597882023   0.599691165222948   1.0
H8   H   0.380143419612189   0.604418956267924   0.784065277259219   1.0
H9   H   0.119295977380116   0.596803850410256   0.458665992219716   1.0
C10   C   0.308037283125889   0.492456223645505   0.573415158124988   1.0
N12   N   0.540487751958660   0.501439126028276   0.407503710487623   1.0
