data_1
_audit_creation_method   'Generated by vasp2cif'
_cell_length_a    4.6064565934
_cell_length_b    4.62492584741
_cell_length_c    5.00433910427
_cell_angle_alpha    90.9559068276
_cell_angle_beta    79.7174260413
_cell_angle_gamma    91.3876922314
_symmetry_space_group_name_H-M    'P 1'
loop_
_atom_site_label
_atom_site_type_symbol
_atom_site_fract_x
_atom_site_fract_y
_atom_site_fract_z
_atom_site_occupancy
H4   H   0.232562089268032   0.344115257911805   0.471675400782639   1.0
H5   H   0.536164601679926   0.489845872212386   0.281879794418257   1.0
H6   H   0.286562025846659   0.707755806998275   0.461419492936874   1.0
H7   H   0.655869795220813   0.276962670596355   0.673497794367096   1.0
H8   H   0.737028377277000   0.655165685248472   0.649331840676988   1.0
H9   H   0.420503153020871   0.527473634163891   0.878353840972626   1.0
C10   C   0.563057737915087   0.490965884064395   0.684580731212135   1.0
N12   N   0.387813932707671   0.510915963155267   0.461069601713454   1.0
