data_1
_audit_creation_method   'Generated by vasp2cif'
_cell_length_a    4.33973317945
_cell_length_b    3.45761341401
_cell_length_c    6.67205256731
_cell_angle_alpha    84.258592845
_cell_angle_beta    88.7696313245
_cell_angle_gamma    90.0011783194
_symmetry_space_group_name_H-M    'P 1'
loop_
_atom_site_label
_atom_site_type_symbol
_atom_site_fract_x
_atom_site_fract_y
_atom_site_fract_z
_atom_site_occupancy
H4   H   0.269925092836864   0.760879673560368   0.410698747681032   1.0
H5   H   0.659652991877003   0.746375871589358   0.390189321381477   1.0
H6   H   0.466689965969941   0.142221032322332   0.300481729998047   1.0
H7   H   0.501391076686048   0.856851104931408   0.731816277690612   1.0
H8   H   0.714611177734170   0.253078345205680   0.606829056477814   1.0
H9   H   0.304267917565092   0.280222764708483   0.629889380035195   1.0
C10   C   0.500227634108960   0.092390912708410   0.612542042474487   1.0
N12   N   0.471222110342168   0.922148364476165   0.416733864554054   1.0
