data_1
_audit_creation_method   'Generated by vasp2cif'
_cell_length_a    4.6262199845
_cell_length_b    3.62095075621
_cell_length_c    6.94777846993
_cell_angle_alpha    106.913358917
_cell_angle_beta    84.3669353441
_cell_angle_gamma    71.9796755819
_symmetry_space_group_name_H-M    'P 1'
loop_
_atom_site_label
_atom_site_type_symbol
_atom_site_fract_x
_atom_site_fract_y
_atom_site_fract_z
_atom_site_occupancy
H4   H   0.808569514476588   0.234820472917463   0.443468570998604   1.0
H5   H   0.582072012619477   0.596997329838324   0.672792989138564   1.0
H6   H   0.784179807450911   0.714150179754576   0.499570583329877   1.0
H7   H   0.336878640827535   0.330328829969609   0.360877700850082   1.0
H8   H   0.206587524306485   0.869647746284571   0.506463904068021   1.0
H9   H   0.469382702350195   0.671854568817778   0.269645661075806   1.0
C10   C   0.396270494437225   0.604646811471063   0.404270357339492   1.0
N12   N   0.657541443076639   0.535464596831503   0.517148602723083   1.0
