data_1
_audit_creation_method   'Generated by vasp2cif'
_cell_length_a    6.44616977232
_cell_length_b    3.54264985333
_cell_length_c    4.58821157049
_cell_angle_alpha    77.8025814516
_cell_angle_beta    94.9316546278
_cell_angle_gamma    90.4258192726
_symmetry_space_group_name_H-M    'P 1'
loop_
_atom_site_label
_atom_site_type_symbol
_atom_site_fract_x
_atom_site_fract_y
_atom_site_fract_z
_atom_site_occupancy
H4   H   0.382366433743343   0.995898936190954   0.266142388123072   1.0
H5   H   0.621404193714959   0.016701394625237   0.445452736233754   1.0
H6   H   0.521081363034703   0.405147541189173   0.215056695853576   1.0
H7   H   0.351080921921820   0.024471588772464   0.782891773567933   1.0
H8   H   0.490770910775048   0.463132883294428   0.725216307536556   1.0
H9   H   0.242331947033172   0.443077362218212   0.529819317805860   1.0
C10   C   0.383620011080559   0.282184887749494   0.622453538621308   1.0
N12   N   0.482171198115246   0.164630752727099   0.371923635893133   1.0
