data_1
_audit_creation_method   'Generated by vasp2cif'
_cell_length_a    5.76792869833
_cell_length_b    4.12948616366
_cell_length_c    6.16677700916
_cell_angle_alpha    47.9613027437
_cell_angle_beta    95.877961395
_cell_angle_gamma    98.8119263623
_symmetry_space_group_name_H-M    'P 1'
loop_
_atom_site_label
_atom_site_type_symbol
_atom_site_fract_x
_atom_site_fract_y
_atom_site_fract_z
_atom_site_occupancy
H4   H   0.647278191809605   0.503088383658948   0.552194983554841   1.0
H5   H   0.393170837049872   0.652495352295773   0.364071762859403   1.0
H6   H   0.393181011386609   0.276067492822463   0.740431918431966   1.0
H7   H   0.548658613781200   0.167025568018964   0.356202781092001   1.0
H8   H   0.549118996086271   0.775542834712617   0.747685137136699   1.0
H9   H   0.280415624109565   0.921941966359668   0.552485080388450   1.0
C10   C   0.462286804437660   0.037785513895663   0.552149011625296   1.0
N12   N   0.473262220259876   0.394848738203812   0.552214279297417   1.0
