data_1
_audit_creation_method   'Generated by vasp2cif'
_cell_length_a    4.98398613671
_cell_length_b    5.01407332732
_cell_length_c    5.01066611168
_cell_angle_alpha    98.9041353899
_cell_angle_beta    97.9556188872
_cell_angle_gamma    97.6707644914
_symmetry_space_group_name_H-M    'P 1'
loop_
_atom_site_label
_atom_site_type_symbol
_atom_site_fract_x
_atom_site_fract_y
_atom_site_fract_z
_atom_site_occupancy
C1   C   0.301046356550046   0.290488672645729   0.336058518434989   1.0
H2   H   0.046644371277196   0.267855246871939   0.621821376201417   1.0
H3   H   0.043233382867335   0.574674685379406   0.316325704291572   1.0
H4   H   0.596441051466350   0.045447682163783   0.318577590122153   1.0
H5   H   0.594168312821594   0.275487249842513   0.088771347455044   1.0
H6   H   0.278267868992081   0.577773393846698   0.088481822103816   1.0
H7   H   0.278794325730658   0.036601742535211   0.618136949989172   1.0
N11   N   0.193789566176207   0.183021689691721   0.532662347286859   1.0
N12   N   0.193397137573989   0.489627724591912   0.232977474402048   1.0
N13   N   0.507741948135454   0.190616348459571   0.234329625642452   1.0
