data_1
_audit_creation_method   'Generated by vasp2cif'
_cell_length_a    4.62069791393
_cell_length_b    4.45982026037
_cell_length_c    4.6452103042
_cell_angle_alpha    102.619407212
_cell_angle_beta    100.946719806
_cell_angle_gamma    76.5826659429
_symmetry_space_group_name_H-M    'P 1'
loop_
_atom_site_label
_atom_site_type_symbol
_atom_site_fract_x
_atom_site_fract_y
_atom_site_fract_z
_atom_site_occupancy
H4   H   0.434670287213056   0.366512064376353   0.264537520123459   1.0
H5   H   0.749248689389290   0.475479759686346   0.452101444991441   1.0
H6   H   0.410422222042774   0.738967170654576   0.463621355045726   1.0
H7   H   0.308192350342398   0.260761668731659   0.614233285606251   1.0
N9   N   0.520857047135230   0.508057767494388   0.455819000468808   1.0
