data_1
_audit_creation_method   'Generated by vasp2cif'
_cell_length_a    4.76183087593
_cell_length_b    3.93332982729
_cell_length_c    5.5247342648
_cell_angle_alpha    111.489581025
_cell_angle_beta    85.3553610719
_cell_angle_gamma    86.3572356807
_symmetry_space_group_name_H-M    'P 1'
loop_
_atom_site_label
_atom_site_type_symbol
_atom_site_fract_x
_atom_site_fract_y
_atom_site_fract_z
_atom_site_occupancy
H4   H   0.496787039857892   0.880618733206427   0.331935953705102   1.0
H5   H   0.683730373994175   0.942846209801841   0.591648747433355   1.0
H6   H   0.332151731488634   0.092380905244515   0.636006981472140   1.0
H7   H   0.242588535025156   0.497526916875304   0.422250052139363   1.0
N9   N   0.487821635512938   0.890000776717410   0.523919890872098   1.0
