data_1
_audit_creation_method   'Generated by vasp2cif'
_cell_length_a    5.74289354037
_cell_length_b    3.85809159654
_cell_length_c    4.5584457525
_cell_angle_alpha    105.068141143
_cell_angle_beta    98.6360082828
_cell_angle_gamma    68.8799144036
_symmetry_space_group_name_H-M    'P 1'
loop_
_atom_site_label
_atom_site_type_symbol
_atom_site_fract_x
_atom_site_fract_y
_atom_site_fract_z
_atom_site_occupancy
H4   H   0.386066696514438   0.371998535484828   0.567335290005857   1.0
H5   H   0.683964317162308   0.212561185838236   0.479668634753115   1.0
H6   H   0.618939512374705   0.375773918908926   0.855816791729720   1.0
H7   H   0.484984592068015   0.928905270027279   0.859242933194667   1.0
N9   N   0.567030792001315   0.236483740735431   0.643098708124715   1.0
