data_1
_audit_creation_method   'Generated by vasp2cif'
_cell_length_a    4.7336683494
_cell_length_b    3.8858152386
_cell_length_c    5.45836743485
_cell_angle_alpha    106.296195543
_cell_angle_beta    81.1009231588
_cell_angle_gamma    106.239478814
_symmetry_space_group_name_H-M    'P 1'
loop_
_atom_site_label
_atom_site_type_symbol
_atom_site_fract_x
_atom_site_fract_y
_atom_site_fract_z
_atom_site_occupancy
H4   H   0.553220695797367   0.092829608899894   0.436273210100960   1.0
H5   H   0.427409190539160   0.139591740819916   0.746860834781677   1.0
H6   H   0.165675106228855   0.032617280059361   0.548262739707543   1.0
H7   H   0.334108533929438   0.498622894959743   0.359983774927719   1.0
N9   N   0.371675649806478   0.999726043169046   0.562914901454512   1.0
