data_1
_audit_creation_method   'Generated by vasp2cif'
_cell_length_a    5.97208857723
_cell_length_b    3.83228471677
_cell_length_c    4.36379523165
_cell_angle_alpha    87.141998988
_cell_angle_beta    86.5755647377
_cell_angle_gamma    72.3767497531
_symmetry_space_group_name_H-M    'P 1'
loop_
_atom_site_label
_atom_site_type_symbol
_atom_site_fract_x
_atom_site_fract_y
_atom_site_fract_z
_atom_site_occupancy
H4   H   0.392119163733177   0.006267010357163   0.650712764918239   1.0
H5   H   0.577106108441534   0.243311162388551   0.503802502466719   1.0
H6   H   0.512170643266529   0.224078542842413   0.892884407645752   1.0
H7   H   0.695716436837905   0.616436466596447   0.902388840714636   1.0
N9   N   0.537271465330775   0.089627427984567   0.689917670046320   1.0
