data_1
_audit_creation_method   'Generated by vasp2cif'
_cell_length_a    5.26567922035
_cell_length_b    3.92335786415
_cell_length_c    4.75905658191
_cell_angle_alpha    115.838616799
_cell_angle_beta    92.3386251237
_cell_angle_gamma    79.8948177999
_symmetry_space_group_name_H-M    'P 1'
loop_
_atom_site_label
_atom_site_type_symbol
_atom_site_fract_x
_atom_site_fract_y
_atom_site_fract_z
_atom_site_occupancy
H4   H   0.240569431588270   0.086970043858408   0.499610904279365   1.0
H5   H   0.514683706284671   0.131838840846704   0.704002659786454   1.0
H6   H   0.269436321727369   0.961747312220389   0.805363843584402   1.0
H7   H   0.332194768307325   0.466759494966183   0.344192879456813   1.0
N9   N   0.365182316824019   0.977458682773495   0.625669784668837   1.0
