data_1
_audit_creation_method   'Generated by vasp2cif'
_cell_length_a    5.24080772776
_cell_length_b    3.63370948739
_cell_length_c    5.01812250117
_cell_angle_alpha    80.7158212203
_cell_angle_beta    85.362168782
_cell_angle_gamma    72.6241809533
_symmetry_space_group_name_H-M    'P 1'
loop_
_atom_site_label
_atom_site_type_symbol
_atom_site_fract_x
_atom_site_fract_y
_atom_site_fract_z
_atom_site_occupancy
H4   H   0.564003727888462   0.344206052819331   0.263296619501652   1.0
H5   H   0.679584354082031   0.549277823611277   0.487175804547768   1.0
H6   H   0.494122956216358   0.250447704875263   0.800411920552939   1.0
H7   H   0.365738937695660   0.747600477777802   0.376414364053872   1.0
N9   N   0.512001628478487   0.486834412464383   0.428811721825490   1.0
