data_1
_audit_creation_method   'Generated by vasp2cif'
_cell_length_a    4.76625915323
_cell_length_b    4.99420555546
_cell_length_c    4.77757174004
_cell_angle_alpha    93.5728667152
_cell_angle_beta    108.729015435
_cell_angle_gamma    92.882283762
_symmetry_space_group_name_H-M    'P 1'
loop_
_atom_site_label
_atom_site_type_symbol
_atom_site_fract_x
_atom_site_fract_y
_atom_site_fract_z
_atom_site_occupancy
N5   N   0.148791043641687   0.827867708817074   0.981328025435367   1.0
N6   N   0.851901428623577   0.819558413715484   0.278649662775024   1.0
H7   H   0.222599162467368   0.642659268720031   0.036866903662983   1.0
H8   H   0.913085647866758   0.634398897150575   0.347773525418333   1.0
H9   H   0.248396467565129   0.932669365675572   0.858924968562967   1.0
H10   H   0.726879452094344   0.918640462583383   0.382614841323182   1.0
H11   H   0.939916307216727   0.152099081464037   0.081404834531895   1.0
C12   C   0.978655853713903   0.944672174227847   0.112305828884317   1.0
