data_1
_audit_creation_method   'Generated by vasp2cif'
_cell_length_a    4.7547310704
_cell_length_b    5.49276954764
_cell_length_c    4.66202707855
_cell_angle_alpha    106.962618281
_cell_angle_beta    98.2084904084
_cell_angle_gamma    72.5952596689
_symmetry_space_group_name_H-M    'P 1'
loop_
_atom_site_label
_atom_site_type_symbol
_atom_site_fract_x
_atom_site_fract_y
_atom_site_fract_z
_atom_site_occupancy
N5   N   0.928965638641473   0.614688200805690   0.943629910785905   1.0
N6   N   0.172828675212888   0.942177137907159   0.700825592052433   1.0
H7   H   0.223085961327836   0.921731424020206   0.912846892151521   1.0
H8   H   0.951376321008118   0.032337511883606   0.686605895541123   1.0
H9   H   0.827177364224973   0.466038591597581   0.911820769574437   1.0
H10   H   0.282390283885961   0.069782702283096   0.680583867317049   1.0
H11   H   0.870012773727004   0.017589043565357   0.172762388688161   1.0
C12   C   0.806247562409443   0.834439177087147   0.100966228896471   1.0
