data_1
_audit_creation_method   'Generated by vasp2cif'
_cell_length_a    5.51885120262
_cell_length_b    5.51681283928
_cell_length_c    5.47752750497
_cell_angle_alpha    90.7114596461
_cell_angle_beta    89.0025607633
_cell_angle_gamma    89.5769959274
_symmetry_space_group_name_H-M    'P 1'
loop_
_atom_site_label
_atom_site_type_symbol
_atom_site_fract_x
_atom_site_fract_y
_atom_site_fract_z
_atom_site_occupancy
C1   C   0.321312033095694   0.450923355419164   0.283521616829766   1.0
C2   C   0.668020176512329   0.579496057494879   0.531336962428696   1.0
C3   C   0.421967049935020   0.230907729407974   0.657217523630159   1.0
C4   C   0.253353980694804   0.642772230371087   0.684478126298814   1.0
H5   H   0.355614327878925   0.715858440975026   0.836011088848480   1.0
H6   H   0.100110843186520   0.538554619624612   0.750884867424404   1.0
H7   H   0.129946482798431   0.411583075449904   0.297702520547155   1.0
H8   H   0.734969917334524   0.572624989238676   0.716121020722596   1.0
H9   H   0.240954276843183   0.157176978361314   0.644013612945997   1.0
H10   H   0.475771904805200   0.257359271058050   0.844246536052864   1.0
H11   H   0.779305198345185   0.468565713954440   0.408355888761108   1.0
H12   H   0.193650321669800   0.787673868179411   0.566699215682178   1.0
H13   H   0.553835700918320   0.117933679122714   0.559160895592385   1.0
H14   H   0.353824516453116   0.621840938127477   0.193485087340015   1.0
H15   H   0.654461899832867   0.763380833966501   0.466753467759013   1.0
H16   H   0.418138588405412   0.302851006967110   0.192828074491814   1.0
N20   N   0.417199346541615   0.474941460178826   0.537980126974567   1.0
