data_1
_audit_creation_method   'Generated by vasp2cif'
_cell_length_a    3.63793587972
_cell_length_b    5.17096813152
_cell_length_c    5.40479382035
_cell_angle_alpha    89.941068498
_cell_angle_beta    107.558731362
_cell_angle_gamma    97.2206021272
_symmetry_space_group_name_H-M    'P 1'
loop_
_atom_site_label
_atom_site_type_symbol
_atom_site_fract_x
_atom_site_fract_y
_atom_site_fract_z
_atom_site_occupancy
H4   H   0.307941877113116   0.528321589345992   0.392611671270501   1.0
H5   H   0.412924233373381   0.782218901100130   0.604595424320941   1.0
H6   H   0.922320526713364   0.497388856227452   0.681849203721605   1.0
H7   H   0.189211609419949   0.246478742140106   0.682232711734812   1.0
H8   H   0.348379128884083   0.464544253497905   0.917540856017709   1.0
N10   N   0.439681807916067   0.589970795258544   0.582477834291879   1.0
N11   N   0.203371864524094   0.442676697271317   0.722797653518370   1.0
