data_1
_audit_creation_method   'Generated by vasp2cif'
_cell_length_a    6.49842315418
_cell_length_b    4.78702818924
_cell_length_c    4.57816803908
_cell_angle_alpha    90.3682213928
_cell_angle_beta    45.0453194028
_cell_angle_gamma    103.508887129
_symmetry_space_group_name_H-M    'P 1'
loop_
_atom_site_label
_atom_site_type_symbol
_atom_site_fract_x
_atom_site_fract_y
_atom_site_fract_z
_atom_site_occupancy
H4   H   0.470532108158522   0.691789213824450   0.222347872367202   1.0
H5   H   0.482105970562387   0.695420675205966   0.852457025266411   1.0
H6   H   0.802612127120121   0.474203539339996   0.902034334519257   1.0
H7   H   0.558075824361829   0.186546439456670   0.956508467865291   1.0
H8   H   0.810136561324036   0.475079762743491   0.524518164533362   1.0
N10   N   0.431611785526449   0.557695809311490   0.080060958048655   1.0
N11   N   0.668574786124147   0.410447622227082   0.848357937843652   1.0
