data_1
_audit_creation_method   'Generated by vasp2cif'
_cell_length_a    3.53226128952
_cell_length_b    4.94123198856
_cell_length_c    6.59387886112
_cell_angle_alpha    75.6244004802
_cell_angle_beta    113.198547761
_cell_angle_gamma    114.272929228
_symmetry_space_group_name_H-M    'P 1'
loop_
_atom_site_label
_atom_site_type_symbol
_atom_site_fract_x
_atom_site_fract_y
_atom_site_fract_z
_atom_site_occupancy
H4   H   0.439346846079083   0.522951068201259   0.570557797340214   1.0
H5   H   0.361575936412052   0.770036533581155   0.358114728224564   1.0
H6   H   0.672975476300223   0.452530707937235   0.319324267514560   1.0
H7   H   0.160500111718577   0.179390862419147   0.299270165141721   1.0
H8   H   0.202843180900750   0.487428696905511   0.114096021604645   1.0
N10   N   0.240876419688654   0.548693417384939   0.410155135132712   1.0
N11   N   0.331457644720473   0.404050852968631   0.275062210638012   1.0
