data_1
_audit_creation_method   'Generated by vasp2cif'
_cell_length_a    6.02761932543
_cell_length_b    4.63486367382
_cell_length_c    3.5446421439
_cell_angle_alpha    100.474613093
_cell_angle_beta    80.4228595353
_cell_angle_gamma    94.3305999839
_symmetry_space_group_name_H-M    'P 1'
loop_
_atom_site_label
_atom_site_type_symbol
_atom_site_fract_x
_atom_site_fract_y
_atom_site_fract_z
_atom_site_occupancy
H4   H   0.458577975097887   0.503891368579959   0.188935159286223   1.0
H5   H   0.631074656410073   0.799372005281573   0.161980894310028   1.0
H6   H   0.834314520410733   0.384618644140407   0.908358596157981   1.0
H7   H   0.638118098468295   0.266891623955574   0.611376224116893   1.0
H8   H   0.804383612448819   0.568283546257507   0.558352461528133   1.0
N10   N   0.546195699667023   0.633691771788256   0.003072078292707   1.0
N11   N   0.716845403568982   0.447514867329389   0.758490320125209   1.0
