data_1
_audit_creation_method   'Generated by vasp2cif'
_cell_length_a    7.17995416814
_cell_length_b    3.69963159263
_cell_length_c    4.55060948592
_cell_angle_alpha    109.274814237
_cell_angle_beta    105.515519905
_cell_angle_gamma    56.4208292001
_symmetry_space_group_name_H-M    'P 1'
loop_
_atom_site_label
_atom_site_type_symbol
_atom_site_fract_x
_atom_site_fract_y
_atom_site_fract_z
_atom_site_occupancy
H4   H   0.576461556329632   0.674180017491814   0.822343164177526   1.0
H5   H   0.476671229897017   0.384569552210624   0.544743504769372   1.0
H6   H   0.825151965374140   0.483214535055235   0.478972250397186   1.0
H7   H   0.719354657289340   0.189425866035139   0.220398086580543   1.0
H8   H   0.554334077860723   0.756817073681620   0.323470027922376   1.0
N10   N   0.620525690409774   0.390756543331991   0.647649097799011   1.0
N11   N   0.679478924606872   0.472158968756729   0.402019710861560   1.0
