data_1
_audit_creation_method   'Generated by vasp2cif'
_cell_length_a    6.45193732115
_cell_length_b    3.4383750685
_cell_length_c    4.19404244313
_cell_angle_alpha    86.5723210853
_cell_angle_beta    100.738302004
_cell_angle_gamma    92.4548325633
_symmetry_space_group_name_H-M    'P 1'
loop_
_atom_site_label
_atom_site_type_symbol
_atom_site_fract_x
_atom_site_fract_y
_atom_site_fract_z
_atom_site_occupancy
H4   H   0.492868033164242   0.409522074924187   0.687704371650737   1.0
H5   H   0.587693380628138   0.855002952121850   0.720821768635804   1.0
H6   H   0.820357483727723   0.404958744372402   0.585500541507223   1.0
H7   H   0.652649490874373   0.371354766991990   0.226170199006482   1.0
H8   H   0.775435926336891   0.799557798525427   0.310247943194042   1.0
N10   N   0.530050943447458   0.653204733376763   0.553406333816065   1.0
N11   N   0.710782461261816   0.553463830798666   0.413433221007606   1.0
