data_1
_audit_creation_method   'Generated by vasp2cif'
_cell_length_a    6.12177882855
_cell_length_b    3.48677601987
_cell_length_c    4.91794366529
_cell_angle_alpha    109.111270591
_cell_angle_beta    91.2261627144
_cell_angle_gamma    83.2373274563
_symmetry_space_group_name_H-M    'P 1'
loop_
_atom_site_label
_atom_site_type_symbol
_atom_site_fract_x
_atom_site_fract_y
_atom_site_fract_z
_atom_site_occupancy
H4   H   0.522528040012290   0.638067324254806   0.801760381778863   1.0
H5   H   0.663543555626021   0.492601296578911   0.489867585623045   1.0
H6   H   0.198482191501363   0.655950064005850   0.511600596207394   1.0
H7   H   0.372577252673580   0.036091381281167   0.545096494825366   1.0
H8   H   0.364209948589611   0.632255420638373   0.250050285733785   1.0
N10   N   0.517144916780552   0.490631224537765   0.585194803958444   1.0
N11   N   0.350861848079930   0.726425765691125   0.471681702735886   1.0
