data_1
_audit_creation_method   'Generated by vasp2cif'
_cell_length_a    5.36383703707
_cell_length_b    3.75545231739
_cell_length_c    5.11689871872
_cell_angle_alpha    78.7031108064
_cell_angle_beta    90.0937041631
_cell_angle_gamma    72.560614169
_symmetry_space_group_name_H-M    'P 1'
loop_
_atom_site_label
_atom_site_type_symbol
_atom_site_fract_x
_atom_site_fract_y
_atom_site_fract_z
_atom_site_occupancy
H4   H   0.271848530923521   0.987940957018139   0.547627640779332   1.0
H5   H   0.472091203868459   0.963449006412745   0.803504238506804   1.0
H6   H   0.648163620088660   0.042760267785624   0.280817997932033   1.0
H7   H   0.445315026074979   0.428594565082022   0.367784347470177   1.0
H8   H   0.726194845168152   0.210245886499678   0.537224336528581   1.0
N10   N   0.463365463939382   0.904374117573283   0.618435097227064   1.0
N11   N   0.575613248877232   0.160116669913798   0.441158283670482   1.0
