data_1
_audit_creation_method   'Generated by vasp2cif'
_cell_length_a    5.57610756304
_cell_length_b    4.64614386867
_cell_length_c    3.66780463993
_cell_angle_alpha    67.0595538353
_cell_angle_beta    109.08739283
_cell_angle_gamma    99.8740801915
_symmetry_space_group_name_H-M    'P 1'
loop_
_atom_site_label
_atom_site_type_symbol
_atom_site_fract_x
_atom_site_fract_y
_atom_site_fract_z
_atom_site_occupancy
N5   N   0.393664629982126   0.474668940322488   0.729396634976013   1.0
H6   H   0.198992404220881   0.442071189326739   0.643185986666580   1.0
H7   H   0.474254798048484   0.257928347976979   0.890948175322286   1.0
H8   H   0.453340761785462   0.593857284120197   0.469992065725229   1.0
H9   H   0.445927995976369   0.614493171224460   0.904766745405460   1.0
