data_1
_audit_creation_method   'Generated by vasp2cif'
_cell_length_a    3.60709394086
_cell_length_b    5.48563070306
_cell_length_c    4.73888997195
_cell_angle_alpha    97.5524460448
_cell_angle_beta    112.541037097
_cell_angle_gamma    69.7900342515
_symmetry_space_group_name_H-M    'P 1'
loop_
_atom_site_label
_atom_site_type_symbol
_atom_site_fract_x
_atom_site_fract_y
_atom_site_fract_z
_atom_site_occupancy
N5   N   0.555885194125608   0.450193912452427   0.534788542578319   1.0
H6   H   0.333345351879501   0.618412202183308   0.568396808726888   1.0
H7   H   0.517393173261546   0.303472499614735   0.624481425622292   1.0
H8   H   0.514459528765677   0.418407200219136   0.307093136127179   1.0
H9   H   0.852756834859008   0.456844124148965   0.670470014221159   1.0
