data_1
_audit_creation_method   'Generated by vasp2cif'
_cell_length_a    4.852359347
_cell_length_b    5.7042292317
_cell_length_c    5.32758615766
_cell_angle_alpha    86.7631030144
_cell_angle_beta    87.624264474
_cell_angle_gamma    101.625709693
_symmetry_space_group_name_H-M    'P 1'
loop_
_atom_site_label
_atom_site_type_symbol
_atom_site_fract_x
_atom_site_fract_y
_atom_site_fract_z
_atom_site_occupancy
C1   C   0.645619335082815   0.305761725912272   0.608552070457251   1.0
C2   C   0.415012634006257   0.647894006467839   0.683015748498348   1.0
C3   C   0.375815424292710   0.465028525670058   0.283686900975091   1.0
H4   H   0.766073213004223   0.356445832127965   0.771054501018634   1.0
H5   H   0.554020440218469   0.700453602158172   0.831531031591811   1.0
H6   H   0.478672351134566   0.367236770358391   0.153451632579962   1.0
H7   H   0.340187383319244   0.630562794762069   0.197745104915041   1.0
H8   H   0.354775194643152   0.800394295475491   0.584881981226169   1.0
H9   H   0.744406752902878   0.647496650843138   0.431577064256327   1.0
H10   H   0.180059433273845   0.356503531644427   0.367135475841819   1.0
H11   H   0.453854549255515   0.175611208533588   0.663927233944078   1.0
H12   H   0.226746362793364   0.523179026207906   0.759313993928172   1.0
H13   H   0.762719987424511   0.229816675175537   0.468116871806264   1.0
N17   N   0.563383936945892   0.525352279152727   0.495297627401455   1.0
