data_1
_audit_creation_method   'Generated by vasp2cif'
_cell_length_a    5.1597339111
_cell_length_b    5.13038356237
_cell_length_c    5.4704430357
_cell_angle_alpha    97.583904778
_cell_angle_beta    84.7455529779
_cell_angle_gamma    83.8499219009
_symmetry_space_group_name_H-M    'P 1'
loop_
_atom_site_label
_atom_site_type_symbol
_atom_site_fract_x
_atom_site_fract_y
_atom_site_fract_z
_atom_site_occupancy
C1   C   0.303092619799332   0.327095934446050   0.436229973040543   1.0
C2   C   0.587164118806161   0.659694369570280   0.330685293151651   1.0
C3   C   0.663540973891950   0.418529891934317   0.684580692453956   1.0
H4   H   0.139214838377568   0.428442807333919   0.362044627415733   1.0
H5   H   0.439257018525278   0.715041649825766   0.213174439610139   1.0
H6   H   0.557868314815181   0.369296585432025   0.849632253766349   1.0
H7   H   0.796770405479957   0.561950291008673   0.727475955089442   1.0
H8   H   0.672607340691696   0.828554968017920   0.416504025870530   1.0
H9   H   0.342447231574704   0.678951993173747   0.646689667792863   1.0
H10   H   0.768834300647823   0.239867418892725   0.575698164860261   1.0
H11   H   0.423627911132037   0.192814400243164   0.288762452602231   1.0
H12   H   0.741384525217264   0.519387769890961   0.222873010086682   1.0
H13   H   0.240138635590734   0.222227388048927   0.584995857298677   1.0
N17   N   0.465043728241187   0.532174783364875   0.534319255959033   1.0
