data_1
_audit_creation_method   'Generated by vasp2cif'
_cell_length_a    5.2237722576
_cell_length_b    5.65130592338
_cell_length_c    5.02840324405
_cell_angle_alpha    97.246507356
_cell_angle_beta    94.9056473568
_cell_angle_gamma    98.2131384728
_symmetry_space_group_name_H-M    'P 1'
loop_
_atom_site_label
_atom_site_type_symbol
_atom_site_fract_x
_atom_site_fract_y
_atom_site_fract_z
_atom_site_occupancy
C1   C   0.399058445597399   0.367307472295330   0.709269442932408   1.0
C2   C   0.360923405987100   0.641878214614958   0.370811879601812   1.0
C3   C   0.702400551058165   0.379407372278579   0.369166294824438   1.0
H4   H   0.284214866024840   0.475852386395521   0.828969613655109   1.0
H5   H   0.255652848081972   0.748511348404863   0.504607057735270   1.0
H6   H   0.842952809813571   0.317542841050785   0.504638099691471   1.0
H7   H   0.795672089487557   0.491506769370560   0.234488549222608   1.0
H8   H   0.473270980495812   0.753741927488078   0.248094446599579   1.0
H9   H   0.664799654060178   0.657474379238183   0.659413759999434   1.0
H10   H   0.574621194828126   0.223790039982239   0.256416798297435   1.0
H11   H   0.273168077078548   0.221478405678931   0.577343648328407   1.0
H12   H   0.225089169407128   0.502162188035700   0.243185705130925   1.0
H13   H   0.539049459566334   0.292059861427788   0.830942599715272   1.0
N17   N   0.541771186037910   0.523636093106753   0.535868964471416   1.0
