data_1
_audit_creation_method   'Generated by vasp2cif'
_cell_length_a    5.02497339968
_cell_length_b    5.27965136005
_cell_length_c    5.58918974559
_cell_angle_alpha    80.4919068643
_cell_angle_beta    84.2380594463
_cell_angle_gamma    94.9084813499
_symmetry_space_group_name_H-M    'P 1'
loop_
_atom_site_label
_atom_site_type_symbol
_atom_site_fract_x
_atom_site_fract_y
_atom_site_fract_z
_atom_site_occupancy
C1   C   0.758329324985709   0.469333068414080   0.590404280465776   1.0
C2   C   0.396043354241058   0.743962320732379   0.614530544969568   1.0
C3   C   0.414797761176551   0.444650475864293   0.313166028626668   1.0
H4   H   0.859516055510376   0.595969680526203   0.693938331042432   1.0
H5   H   0.294506908031145   0.597716890012130   0.762533963540015   1.0
H6   H   0.306726899602069   0.285178242962168   0.444164553455238   1.0
H7   H   0.556591217798392   0.370854623434347   0.189966289834842   1.0
H8   H   0.525881251979968   0.877175657608973   0.690608494386026   1.0
H9   H   0.677702657137523   0.760920312509363   0.323199504112310   1.0
H10   H   0.275886214637119   0.554899497178461   0.213737349589785   1.0
H11   H   0.637620556632307   0.311517130642777   0.715081641578607   1.0
H12   H   0.251080579981526   0.842178674520156   0.512080942014933   1.0
H13   H   0.894731832441771   0.393733378810801   0.464682445166119   1.0
N17   N   0.568910267030574   0.616328257187739   0.448415206956312   1.0
