data_1
_audit_creation_method   'Generated by vasp2cif'
_cell_length_a    3.98398002069
_cell_length_b    7.24440467984
_cell_length_c    5.4791252328
_cell_angle_alpha    95.3631519123
_cell_angle_beta    73.7633351812
_cell_angle_gamma    77.6931064595
_symmetry_space_group_name_H-M    'P 1'
loop_
_atom_site_label
_atom_site_type_symbol
_atom_site_fract_x
_atom_site_fract_y
_atom_site_fract_z
_atom_site_occupancy
C1   C   0.563814055858650   0.572673896096710   0.305701215671050   1.0
C2   C   0.687305295547723   0.797504563097881   0.617486947175273   1.0
C3   C   0.774852913492069   0.448751101310570   0.658230663612983   1.0
H4   H   0.441156056315776   0.701202396137020   0.244660851245719   1.0
H5   H   0.941307825776917   0.785273338651059   0.471823857973959   1.0
H6   H   0.614268560194063   0.344241835249946   0.693737603536178   1.0
H7   H   0.828254089625865   0.497161387469525   0.833234534920699   1.0
H8   H   0.483625636398983   0.917342060442259   0.600225699112457   1.0
H9   H   0.306330031164272   0.651453627239434   0.710761207746522   1.0
H10   H   0.026549784863136   0.385893958150646   0.506887978929292   1.0
H11   H   0.843291869433720   0.518469718460317   0.187041734791364   1.0
H12   H   0.715122439383386   0.810751097573963   0.808191217228533   1.0
H13   H   0.411230325844464   0.466441354365031   0.291292228256360   1.0
N17   N   0.562837539199300   0.617842580552924   0.578370601558156   1.0
