data_1
_audit_creation_method   'Generated by vasp2cif'
_cell_length_a    4.9663792075
_cell_length_b    4.19886989578
_cell_length_c    7.28461546597
_cell_angle_alpha    87.6012092448
_cell_angle_beta    84.1956108751
_cell_angle_gamma    84.7933981704
_symmetry_space_group_name_H-M    'P 1'
loop_
_atom_site_label
_atom_site_type_symbol
_atom_site_fract_x
_atom_site_fract_y
_atom_site_fract_z
_atom_site_occupancy
C1   C   0.267701038780892   0.485600090008710   0.447983933219604   1.0
C2   C   0.651180635129947   0.783707723886039   0.484042736106844   1.0
C3   C   0.494523984589499   0.437114517018088   0.748139100014576   1.0
H4   H   0.174653620648378   0.680739446757826   0.367751771207608   1.0
H5   H   0.581124347996678   0.951187844474298   0.378825590841622   1.0
H6   H   0.330788054019479   0.293032852715513   0.799027417002812   1.0
H7   H   0.533262133147510   0.596609217688737   0.854400392043246   1.0
H8   H   0.765795954940891   0.894334395589361   0.578921905300241   1.0
H9   H   0.272275771856087   0.824945033376487   0.642231055741568   1.0
H10   H   0.677173192853274   0.287343643910482   0.706308848427675   1.0
H11   H   0.413678184676399   0.346282510369093   0.355796022243027   1.0
H12   H   0.770987623487670   0.583593506389271   0.418779701940821   1.0
H13   H   0.117789865679576   0.340971442500532   0.519283647236222   1.0
N17   N   0.411365115334156   0.644718856710234   0.586248798619032   1.0
