data_1
_audit_creation_method   'Generated by vasp2cif'
_cell_length_a    4.95489085421
_cell_length_b    3.91941897476
_cell_length_c    7.62784623403
_cell_angle_alpha    89.973309807
_cell_angle_beta    85.7753811357
_cell_angle_gamma    86.6685347828
_symmetry_space_group_name_H-M    'P 1'
loop_
_atom_site_label
_atom_site_type_symbol
_atom_site_fract_x
_atom_site_fract_y
_atom_site_fract_z
_atom_site_occupancy
C1   C   0.266183101585462   0.539724632073408   0.472696383757715   1.0
C2   C   0.676609604586375   0.839212240047843   0.470496153567332   1.0
C3   C   0.550846554451070   0.516272396131093   0.738180884644898   1.0
H4   H   0.175154720702160   0.738686785248149   0.394140688509530   1.0
H5   H   0.600646602133963   0.996742201603745   0.366805274865982   1.0
H6   H   0.392587082014700   0.361196434212367   0.795359089715141   1.0
H7   H   0.602221314179268   0.699629802557041   0.834823643010914   1.0
H8   H   0.813265658625355   0.968270180376869   0.548759259248335   1.0
H9   H   0.323530699354770   0.917401919782037   0.646812304589830   1.0
H10   H   0.728176891402867   0.356887025512449   0.694207642101958   1.0
H11   H   0.386532528640302   0.364185317145136   0.385421165798896   1.0
H12   H   0.775689068733449   0.609958946363591   0.410174971898719   1.0
H13   H   0.116439757216149   0.411381072101840   0.554755580371285   1.0
N17   N   0.446124382001990   0.719252875826136   0.587347729578148   1.0
