data_1
_audit_creation_method   'Generated by vasp2cif'
_cell_length_a    5.69136281891
_cell_length_b    4.80526295674
_cell_length_c    4.89221926192
_cell_angle_alpha    94.4916053371
_cell_angle_beta    96.801893157
_cell_angle_gamma    94.3432890178
_symmetry_space_group_name_H-M    'P 1'
loop_
_atom_site_label
_atom_site_type_symbol
_atom_site_fract_x
_atom_site_fract_y
_atom_site_fract_z
_atom_site_occupancy
H4   H   0.362592363693962   0.507887896554907   0.148573214023911   1.0
H5   H   0.828649572648154   0.669383432190107   0.473924773082811   1.0
H6   H   0.467808432505338   0.838343800169388   0.242226772886426   1.0
H7   H   0.494434134878576   0.200175968905167   0.651480262341889   1.0
H8   H   0.354010256035204   0.803198290117977   0.688629130428069   1.0
H9   H   0.173002063279522   0.497493660379535   0.533188786944221   1.0
H10   H   0.724883919191010   0.341824320201754   0.289358559016552   1.0
H11   H   0.646963240875096   0.483318387248631   0.872332381919698   1.0
C12   C   0.350097191802135   0.601202791717462   0.572726207067104   1.0
C13   C   0.681265813038268   0.510164078086576   0.427116058199874   1.0
C14   C   0.552436763555130   0.421705785379312   0.669192555462955   1.0
N16   N   0.459408858155125   0.637403474508808   0.305642498596256   1.0
