data_1
_audit_creation_method   'Generated by vasp2cif'
_cell_length_a    4.91560593512
_cell_length_b    5.51803675751
_cell_length_c    5.00034247769
_cell_angle_alpha    84.646101533
_cell_angle_beta    85.4508191381
_cell_angle_gamma    100.242263596
_symmetry_space_group_name_H-M    'P 1'
loop_
_atom_site_label
_atom_site_type_symbol
_atom_site_fract_x
_atom_site_fract_y
_atom_site_fract_z
_atom_site_occupancy
H4   H   0.315217598775242   0.737707604216901   0.799304987298939   1.0
H5   H   0.395368763533440   0.735667148555379   0.226458412014594   1.0
H6   H   0.573779493191054   0.930474290415866   0.596235170906560   1.0
H7   H   0.471428354772605   0.243908043782781   0.497278869664946   1.0
H8   H   0.869302644900692   0.663414740479375   0.688643115810535   1.0
H9   H   0.591449141823176   0.459990003487690   0.893217014880854   1.0
H10   H   0.149151412536689   0.524366990938162   0.459468151748425   1.0
H11   H   0.736879146595264   0.456189895208595   0.291077285881748   1.0
C12   C   0.657546649938553   0.567196183136105   0.700271953045309   1.0
C13   C   0.363835648098849   0.612152741377635   0.410298157376772   1.0
C14   C   0.571386673159616   0.436267902686396   0.452896594011449   1.0
N16   N   0.466374661525648   0.752513858228887   0.643491114054605   1.0
