data_1
_audit_creation_method   'Generated by vasp2cif'
_cell_length_a    7.07885063799
_cell_length_b    4.62141197689
_cell_length_c    4.33104936459
_cell_angle_alpha    103.473849356
_cell_angle_beta    81.7181287409
_cell_angle_gamma    87.8281105365
_symmetry_space_group_name_H-M    'P 1'
loop_
_atom_site_label
_atom_site_type_symbol
_atom_site_fract_x
_atom_site_fract_y
_atom_site_fract_z
_atom_site_occupancy
H4   H   0.677842742271244   0.035471466250890   0.003031643360891   1.0
H5   H   0.280563498261530   0.262484267171641   0.021981190502565   1.0
H6   H   0.346133534943385   0.898779090091627   0.986977582247153   1.0
H7   H   0.472006119814766   0.853988836269733   0.429474416445266   1.0
H8   H   0.314181770483406   0.178678549032354   0.486476550163558   1.0
H9   H   0.582587433644436   0.499530578239093   0.635626767413764   1.0
H10   H   0.741459300273487   0.170915017222724   0.475801755906333   1.0
H11   H   0.572886995297360   0.406804371045420   0.159791280904337   1.0
C12   C   0.433790562053258   0.081797266703797   0.567711679175170   1.0
C13   C   0.582361466718689   0.209111872256839   0.967850567516854   1.0
C14   C   0.608858279344211   0.264660574627720   0.631279158847232   1.0
N16   N   0.386758359324794   0.093274657302250   0.921764234187182   1.0
