data_1
_audit_creation_method   'Generated by vasp2cif'
_cell_length_a    6.56262392334
_cell_length_b    4.8430615342
_cell_length_c    4.35194338267
_cell_angle_alpha    89.6172260385
_cell_angle_beta    94.1101223322
_cell_angle_gamma    81.6756744796
_symmetry_space_group_name_H-M    'P 1'
loop_
_atom_site_label
_atom_site_type_symbol
_atom_site_fract_x
_atom_site_fract_y
_atom_site_fract_z
_atom_site_occupancy
H4   H   0.715199357679246   0.194400698772043   0.107696774991524   1.0
H5   H   0.294580876218156   0.052999768758276   0.987124127306075   1.0
H6   H   0.529367876732159   0.840092173490092   0.019260345241698   1.0
H7   H   0.561232718987313   0.904075412088432   0.492382408017235   1.0
H8   H   0.307269881686217   0.100654280152092   0.468710032643394   1.0
H9   H   0.456516021328738   0.528828297010449   0.583700483883199   1.0
H10   H   0.708194147492065   0.339718252050417   0.566793715812857   1.0
H11   H   0.473603507849376   0.422116678878879   0.133876085031780   1.0
C12   C   0.460139800948554   0.074123726186762   0.587746184326683   1.0
C13   C   0.563607242293273   0.270614718103737   0.000246337280423   1.0
C14   C   0.558675897724413   0.339848689754497   0.657197232712157   1.0
N16   N   0.445911493416539   0.023404764368792   0.929794039197709   1.0
