data_1
_audit_creation_method   'Generated by vasp2cif'
_cell_length_a    4.73644118933
_cell_length_b    3.69729703539
_cell_length_c    7.67059682369
_cell_angle_alpha    92.0416850055
_cell_angle_beta    87.7372601399
_cell_angle_gamma    82.0246387803
_symmetry_space_group_name_H-M    'P 1'
loop_
_atom_site_label
_atom_site_type_symbol
_atom_site_fract_x
_atom_site_fract_y
_atom_site_fract_z
_atom_site_occupancy
H4   H   0.099334836759908   0.926997495443558   0.588617501479192   1.0
H5   H   0.290058941622839   0.119307545414301   0.310683453657909   1.0
H6   H   0.129603614543605   0.537004997222567   0.362320489485342   1.0
H7   H   0.706692941949655   0.211036324639203   0.433626622869106   1.0
H8   H   0.567481123135899   0.674905180648899   0.479887497298577   1.0
H9   H   0.384019722653427   0.505854543229567   0.774713460429936   1.0
H10   H   0.550531906618247   0.048986590520762   0.726567595417187   1.0
H11   H   0.962538753149403   0.391027687663957   0.636984970237371   1.0
C12   C   0.531399372637836   0.395242278347858   0.495044882212163   1.0
C13   C   0.147552980488598   0.203556744499238   0.590793757775693   1.0
C14   C   0.422694677977610   0.284613041050598   0.675517784210399   1.0
N16   N   0.257360836835240   0.314407063098720   0.412738524297701   1.0
