data_1
_audit_creation_method   'Generated by vasp2cif'
_cell_length_a    5.04872006989
_cell_length_b    3.7580703786
_cell_length_c    7.38135561621
_cell_angle_alpha    102.665642008
_cell_angle_beta    87.9551395431
_cell_angle_gamma    106.60305287
_symmetry_space_group_name_H-M    'P 1'
loop_
_atom_site_label
_atom_site_type_symbol
_atom_site_fract_x
_atom_site_fract_y
_atom_site_fract_z
_atom_site_occupancy
H4   H   0.163699549686129   0.453645893672899   0.527110546956550   1.0
H5   H   0.504443527522433   0.691134832232052   0.317369003471981   1.0
H6   H   0.367119144543111   0.030737378688400   0.304219718626882   1.0
H7   H   0.772752585417500   0.089140249856953   0.589194914648132   1.0
H8   H   0.641729182673430   0.453779206688203   0.547730278373038   1.0
H9   H   0.257120494622804   0.270070035801375   0.751767604519259   1.0
H10   H   0.403747435666084   0.931137857414626   0.806951369679346   1.0
H11   H   0.998336465380113   0.782598960836538   0.484638541410824   1.0
C12   C   0.588557719055380   0.164656645393755   0.564965158701682   1.0
C13   C   0.189303788746514   0.748678841239148   0.527972896002801   1.0
C14   C   0.350536385962755   0.044634339928777   0.694786030568551   1.0
N16   N   0.418570769717711   0.889792988486889   0.397725235569766   1.0
