data_1
_audit_creation_method   'Generated by vasp2cif'
_cell_length_a    3.67822926972
_cell_length_b    4.69492450225
_cell_length_c    7.82293176908
_cell_angle_alpha    85.3349293389
_cell_angle_beta    94.1923572029
_cell_angle_gamma    100.945979988
_symmetry_space_group_name_H-M    'P 1'
loop_
_atom_site_label
_atom_site_type_symbol
_atom_site_fract_x
_atom_site_fract_y
_atom_site_fract_z
_atom_site_occupancy
H4   H   0.695408177208611   0.945974993604533   0.176671884284749   1.0
H5   H   0.980113183872243   0.777064355437861   0.527386895979989   1.0
H6   H   0.538326456939853   0.722147022137173   0.453839336879439   1.0
H7   H   0.460791921232505   0.158638805119808   0.552607765078355   1.0
H8   H   0.930458218927768   0.204330153390509   0.628768323792964   1.0
H9   H   0.125032531776185   0.468047440701976   0.353524565984843   1.0
H10   H   0.659798538452424   0.421689659830262   0.270538612671440   1.0
H11   H   0.167436798885452   0.991474913157005   0.247154857985259   1.0
C12   C   0.740959597048851   0.160199894863299   0.517643065516699   1.0
C13   C   0.896797700831510   0.024342455623759   0.278141712484607   1.0
C14   C   0.864569670829276   0.317342113941017   0.344914616345251   1.0
N16   N   0.780064779132537   0.870825651266927   0.452336002200299   1.0
