data_1
_audit_creation_method   'Generated by vasp2cif'
_cell_length_a    6.53975138202
_cell_length_b    4.99988467435
_cell_length_c    4.32727154314
_cell_angle_alpha    72.6885825224
_cell_angle_beta    83.1737879942
_cell_angle_gamma    81.6524682725
_symmetry_space_group_name_H-M    'P 1'
loop_
_atom_site_label
_atom_site_type_symbol
_atom_site_fract_x
_atom_site_fract_y
_atom_site_fract_z
_atom_site_occupancy
H4   H   0.398208239460089   0.832664827306914   0.913923360621126   1.0
H5   H   0.419171999066137   0.414220735460106   0.884217431632948   1.0
H6   H   0.629397796482074   0.166990437372519   0.878283358021207   1.0
H7   H   0.617414930473245   0.077344129402249   0.438716550563775   1.0
H8   H   0.395578410191554   0.331787098485158   0.410121571277173   1.0
H9   H   0.167566501881389   0.967131590785556   0.500844598974254   1.0
H10   H   0.383134413529163   0.707360361526447   0.487835882629106   1.0
H11   H   0.183257080331863   0.105735222383835   0.904511986218317   1.0
C12   C   0.466118762772453   0.144612332689959   0.345430852564014   1.0
C13   C   0.325367586849325   0.999718865200414   0.010179554204647   1.0
C14   C   0.317499488676553   0.922976780354091   0.379311894102301   1.0
N16   N   0.480801615719741   0.210666516612292   0.980692624832919   1.0
