data_1
_audit_creation_method   'Generated by vasp2cif'
_cell_length_a    6.97466762428
_cell_length_b    4.65332399728
_cell_length_c    4.3750204863
_cell_angle_alpha    106.165525691
_cell_angle_beta    83.67561341
_cell_angle_gamma    88.0743312189
_symmetry_space_group_name_H-M    'P 1'
loop_
_atom_site_label
_atom_site_type_symbol
_atom_site_fract_x
_atom_site_fract_y
_atom_site_fract_z
_atom_site_occupancy
H4   H   0.368017427796005   0.965860816132675   0.614249697967679   1.0
H5   H   0.554199450463614   0.514781332567345   0.859704969969364   1.0
H6   H   0.643459742485412   0.162897879367307   0.797601729941505   1.0
H7   H   0.598279663162479   0.214882051106542   0.330368466218040   1.0
H8   H   0.420266253792072   0.522261921026256   0.399979822698206   1.0
H9   H   0.172521150991891   0.154011782095203   0.283627330747393   1.0
H10   H   0.352158207309401   0.857820581634087   0.120038104556414   1.0
H11   H   0.232800994441355   0.319065721396306   0.783946780343747   1.0
C12   C   0.474533552719855   0.301828163208192   0.247118588683570   1.0
C13   C   0.338946968144590   0.158893459943137   0.819206656875956   1.0
C14   C   0.312676181906930   0.091179482430086   0.142357241734231   1.0
N16   N   0.525846074194661   0.311341673993823   0.904143199611028   1.0
