data_1
_audit_creation_method   'Generated by vasp2cif'
_cell_length_a    4.70467734632
_cell_length_b    6.17344887235
_cell_length_c    4.70425210441
_cell_angle_alpha    86.2836916746
_cell_angle_beta    75.7852025388
_cell_angle_gamma    93.7113765567
_symmetry_space_group_name_H-M    'P 1'
loop_
_atom_site_label
_atom_site_type_symbol
_atom_site_fract_x
_atom_site_fract_y
_atom_site_fract_z
_atom_site_occupancy
H4   H   0.660304870659409   0.116351275944446   0.850041851627140   1.0
H5   H   0.424953978676015   0.879560344980305   0.528507159000256   1.0
H6   H   0.124383433590403   0.505612493992508   0.467219491528546   1.0
H7   H   0.488430582274638   0.504811547151988   0.830911695966627   1.0
H8   H   0.103952727493969   0.117364887433091   0.294252080635616   1.0
C9   C   0.429286222276715   0.376537544271656   0.709402733273080   1.0
C10   C   0.400116462971852   0.047758383449491   0.553939787401561   1.0
C11   C   0.245552086927532   0.376933773047476   0.525887800845517   1.0
N13   N   0.525081980201804   0.170218507596630   0.721668401576707   1.0
N14   N   0.232579081704330   0.170826431306985   0.429503535843089   1.0
