data_1
_audit_creation_method   'Generated by vasp2cif'
_cell_length_a    4.79071135559
_cell_length_b    6.02830938553
_cell_length_c    4.70627906254
_cell_angle_alpha    97.2464360134
_cell_angle_beta    78.5608075492
_cell_angle_gamma    84.0131166379
_symmetry_space_group_name_H-M    'P 1'
loop_
_atom_site_label
_atom_site_type_symbol
_atom_site_fract_x
_atom_site_fract_y
_atom_site_fract_z
_atom_site_occupancy
H4   H   0.328650099112402   0.097560904875323   0.231696472512581   1.0
H5   H   0.611998777539441   0.955854597184519   0.602168942344193   1.0
H6   H   0.869471146863901   0.580039949862019   0.416161977658781   1.0
H7   H   0.469786051823078   0.471532951637805   0.098699078776249   1.0
H8   H   0.933580038782047   0.235891437051421   0.705943322334896   1.0
C9   C   0.551553820259826   0.385559907581040   0.254796387645776   1.0
C10   C   0.620912982474671   0.108785706006977   0.510069833923964   1.0
C11   C   0.753410492168776   0.437604311101218   0.410068001405357   1.0
N13   N   0.470955962511219   0.182187436120259   0.322300680824568   1.0
N14   N   0.791675311051392   0.262766711937800   0.570094517389414   1.0
