data_1
_audit_creation_method   'Generated by vasp2cif'
_cell_length_a    5.58789205549
_cell_length_b    5.09803465521
_cell_length_c    4.87575011121
_cell_angle_alpha    76.5668645462
_cell_angle_beta    82.430759913
_cell_angle_gamma    98.1984445923
_symmetry_space_group_name_H-M    'P 1'
loop_
_atom_site_label
_atom_site_type_symbol
_atom_site_fract_x
_atom_site_fract_y
_atom_site_fract_z
_atom_site_occupancy
H4   H   0.673126665909315   0.335444614231406   0.877546614176595   1.0
H5   H   0.687188817596827   0.987273199813885   0.582595479238051   1.0
H6   H   0.055256660283384   0.330053286221840   0.457774198812594   1.0
H7   H   0.296703907307162   0.565334948329252   0.834246551767485   1.0
H8   H   0.316999074631063   0.984813231212087   0.334267704488731   1.0
C9   C   0.338079594284053   0.415392735221665   0.722412066259693   1.0
C10   C   0.551708381062525   0.115299847935482   0.595270579444126   1.0
C11   C   0.217741643184134   0.296405422347277   0.543614411282356   1.0
N13   N   0.546037173978384   0.299577994202792   0.749457428831747   1.0
N14   N   0.356565105424032   0.112656098734796   0.464867672377586   1.0
