data_1
_audit_creation_method   'Generated by vasp2cif'
_cell_length_a    4.86952631037
_cell_length_b    5.12849838233
_cell_length_c    5.5548695707
_cell_angle_alpha    98.2746353103
_cell_angle_beta    98.1516072369
_cell_angle_gamma    102.943439777
_symmetry_space_group_name_H-M    'P 1'
loop_
_atom_site_label
_atom_site_type_symbol
_atom_site_fract_x
_atom_site_fract_y
_atom_site_fract_z
_atom_site_occupancy
H4   H   0.169266070657962   0.429805461653906   0.723169165432211   1.0
H5   H   0.458744726522141   0.077734068693246   0.737412511529179   1.0
H6   H   0.598859382559681   0.426424358695442   0.110206385116378   1.0
H7   H   0.222129514544420   0.664509297131346   0.349015692764809   1.0
H8   H   0.713306907363354   0.076828591450934   0.369655554776301   1.0
C9   C   0.330951700309747   0.512358830588859   0.390580344243546   1.0
C10   C   0.449516716172404   0.206977378427283   0.602497538057051   1.0
C11   C   0.509895672978914   0.392284674403733   0.271361635876467   1.0
N13   N   0.298135105681396   0.393555379780011   0.596767384493212   1.0
N14   N   0.582944352992506   0.204941607296703   0.409020581106312   1.0
