data_1
_audit_creation_method   'Generated by vasp2cif'
_cell_length_a    4.62131492277
_cell_length_b    3.53806123674
_cell_length_c    8.11574000106
_cell_angle_alpha    87.2611003165
_cell_angle_beta    87.9628617523
_cell_angle_gamma    81.7304873015
_symmetry_space_group_name_H-M    'P 1'
loop_
_atom_site_label
_atom_site_type_symbol
_atom_site_fract_x
_atom_site_fract_y
_atom_site_fract_z
_atom_site_occupancy
H4   H   0.542808980989463   0.597633408469335   0.268609620394244   1.0
H5   H   0.143475140830027   0.173100485926106   0.683446356086812   1.0
H6   H   0.542938885056500   0.529449030308236   0.791164560871024   1.0
H7   H   0.820611788977196   0.793048521496090   0.511279018357286   1.0
H8   H   0.139311201710576   0.208637983071171   0.370231983352127   1.0
C9   C   0.509930262968908   0.492799340705332   0.663203911489319   1.0
C10   C   0.649241496831614   0.620628379138523   0.525373916312020   1.0
C11   C   0.283359043360505   0.337982075178452   0.444554844551519   1.0
N13   N   0.281946801895323   0.320802911412706   0.609689639194457   1.0
N14   N   0.504911281515781   0.521064380894209   0.390673575775168   1.0
