data_1
_audit_creation_method   'Generated by vasp2cif'
_cell_length_a    4.58940119138
_cell_length_b    3.5560209057
_cell_length_c    8.1308084949
_cell_angle_alpha    92.2405440462
_cell_angle_beta    88.2203865938
_cell_angle_gamma    93.7250069986
_symmetry_space_group_name_H-M    'P 1'
loop_
_atom_site_label
_atom_site_type_symbol
_atom_site_fract_x
_atom_site_fract_y
_atom_site_fract_z
_atom_site_occupancy
H4   H   0.426721380945088   0.149681412700730   0.758074025809601   1.0
H5   H   0.830170590149082   0.631672160647196   0.358105079701427   1.0
H6   H   0.433694921110371   0.998761827934917   0.242257823603458   1.0
H7   H   0.144335937297905   0.312875225231939   0.513694148099717   1.0
H8   H   0.837809775507196   0.703824860786591   0.673317326155834   1.0
C9   C   0.464165326218816   0.980219091240652   0.371457632295349   1.0
C10   C   0.322123073541411   0.134067712212358   0.504532271213427   1.0
C11   C   0.693716804342850   0.835959367610210   0.594969459868771   1.0
N13   N   0.693559169586050   0.797608660382418   0.430917847346928   1.0
N14   N   0.469068823110786   0.041673776347658   0.642520648303911   1.0
