data_1
_audit_creation_method   'Generated by vasp2cif'
_cell_length_a    5.88309586075
_cell_length_b    5.80898291421
_cell_length_c    6.00588681852
_cell_angle_alpha    81.4848511045
_cell_angle_beta    88.602711313
_cell_angle_gamma    94.386835293
_symmetry_space_group_name_H-M    'P 1'
loop_
_atom_site_label
_atom_site_type_symbol
_atom_site_fract_x
_atom_site_fract_y
_atom_site_fract_z
_atom_site_occupancy
C1   C   0.461773320836706   0.583064824852343   0.335765020648715   1.0
C2   C   0.546938833402351   0.404243086647462   0.199706459269549   1.0
H3   H   0.730404097522964   0.435340951734304   0.160707111591130   1.0
H4   H   0.457120758922130   0.415733412159042   0.042498973581004   1.0
H5   H   0.579535521203027   0.410325746044499   0.642179530262240   1.0
H6   H   0.534307515017169   0.691919701604554   0.650837071436101   1.0
H7   H   0.511938669158170   0.226726541522396   0.290220502370950   1.0
H8   H   0.489872182829700   0.761479209143076   0.247067323281804   1.0
H9   H   0.281731519813128   0.547545016064731   0.386236539461976   1.0
H10   H   0.763550817695524   0.627045610350329   0.514210000908960   1.0
N14   N   0.592918148573261   0.576734036077255   0.550925475458932   1.0
