data_1
_audit_creation_method   'Generated by vasp2cif'
_cell_length_a    5.65622548739
_cell_length_b    4.15131324985
_cell_length_c    8.74081381298
_cell_angle_alpha    96.9885773255
_cell_angle_beta    90.451428007
_cell_angle_gamma    92.0999429744
_symmetry_space_group_name_H-M    'P 1'
loop_
_atom_site_label
_atom_site_type_symbol
_atom_site_fract_x
_atom_site_fract_y
_atom_site_fract_z
_atom_site_occupancy
C1   C   0.568184388035164   0.743969036909355   0.418731228991859   1.0
C2   C   0.569954752052666   0.563975127984122   0.560052189485461   1.0
H3   H   0.731897989532072   0.429559600108497   0.566553586676918   1.0
H4   H   0.563247626140338   0.740440404345257   0.662801890678075   1.0
H5   H   0.729660916609760   0.377189657745184   0.266662595249670   1.0
H6   H   0.576526016490547   0.632416973060757   0.174785594342175   1.0
H7   H   0.406048448067210   0.876687776800857   0.411124851675474   1.0
H8   H   0.416107429004669   0.396743643987698   0.560632371246626   1.0
H9   H   0.722761774991099   0.908998116075793   0.417469153397008   1.0
H10   H   0.429423931177432   0.352668544432170   0.260640645594805   1.0
Cl11   Cl   0.561060907107020   0.859941276399425   0.966516108109531   1.0
Cl12   Cl   0.068830720616837   0.159100856068889   0.203957745401503   1.0
Cl13   Cl   0.070157224613602   0.061141975735005   0.698552611984674   1.0
N14   N   0.577253155697292   0.509606683378131   0.271694180475919   1.0
