data_1
_audit_creation_method   'Generated by vasp2cif'
_cell_length_a    8.34761325021
_cell_length_b    4.23943133307
_cell_length_c    5.81939098518
_cell_angle_alpha    82.0297248897
_cell_angle_beta    93.5373875784
_cell_angle_gamma    87.7271353726
_symmetry_space_group_name_H-M    'P 1'
loop_
_atom_site_label
_atom_site_type_symbol
_atom_site_fract_x
_atom_site_fract_y
_atom_site_fract_z
_atom_site_occupancy
C1   C   0.467654550961932   0.554091765368241   0.405679679027813   1.0
C2   C   0.405074262274397   0.695469192598878   0.611942169728103   1.0
H3   H   0.383114421587166   0.507793307695920   0.753643075222591   1.0
H4   H   0.490190265469011   0.853593059973129   0.681815913861044   1.0
H5   H   0.637521771551441   0.243051616292611   0.627999577179388   1.0
H6   H   0.721402600694447   0.551428121103129   0.488463209346755   1.0
H7   H   0.389414050155359   0.374312036213752   0.350509270853237   1.0
H8   H   0.291727800244047   0.830815597728282   0.558244506552775   1.0
H9   H   0.481321456372065   0.733137933377101   0.255225531864319   1.0
H10   H   0.666216270204615   0.258690021800881   0.340910767968545   1.0
N14   N   0.632694528783013   0.389476195581679   0.469679822864556   1.0
