data_1
_audit_creation_method   'Generated by vasp2cif'
_cell_length_a    5.87811462912
_cell_length_b    4.3285459438
_cell_length_c    8.12861480393
_cell_angle_alpha    94.7504781805
_cell_angle_beta    96.9943653665
_cell_angle_gamma    93.7226190805
_symmetry_space_group_name_H-M    'P 1'
loop_
_atom_site_label
_atom_site_type_symbol
_atom_site_fract_x
_atom_site_fract_y
_atom_site_fract_z
_atom_site_occupancy
C1   C   0.411518591162370   0.828070233123228   0.614278273604420   1.0
C2   C   0.585476415441768   0.619321639307714   0.549444554212222   1.0
H3   H   0.504278277776514   0.445968152009406   0.450651428553087   1.0
H4   H   0.712407919469655   0.764013518209403   0.496975651423050   1.0
H5   H   0.150967548019935   0.465272579643319   0.616440155871686   1.0
H6   H   0.115260947867625   0.787528708266535   0.737287626644466   1.0
H7   H   0.493793735648779   0.007360220732551   0.708991483227052   1.0
H8   H   0.675047568145757   0.501480561289810   0.649439739121512   1.0
H9   H   0.314640776719557   0.935400724277834   0.514064426336482   1.0
H10   H   0.314122612156822   0.557371218932886   0.804153304662506   1.0
Cl11   Cl   0.449816080790860   0.620755062112885   0.084802448114822   1.0
Cl12   Cl   0.919416173213953   0.132217892666304   0.866271433666853   1.0
Cl13   Cl   0.978059235289095   0.212626331892380   0.371082456496090   1.0
N14   N   0.236352010941808   0.643802425385026   0.697686525331072   1.0
