data_1
_audit_creation_method   'Generated by vasp2cif'
_cell_length_a    4.72498070844
_cell_length_b    4.06584326857
_cell_length_c    10.4120464199
_cell_angle_alpha    78.8887095849
_cell_angle_beta    85.2453659417
_cell_angle_gamma    90.4195834266
_symmetry_space_group_name_H-M    'P 1'
loop_
_atom_site_label
_atom_site_type_symbol
_atom_site_fract_x
_atom_site_fract_y
_atom_site_fract_z
_atom_site_occupancy
C1   C   0.433817781752084   0.105088301343466   0.469521433627591   1.0
C2   C   0.680004792147889   0.118215590737811   0.553902405008497   1.0
H3   H   0.821958371529131   0.908672394169678   0.550405998876640   1.0
H4   H   0.802725460240341   0.353256141754830   0.523269643865159   1.0
H5   H   0.370664420778212   0.115491297581578   0.269947649024939   1.0
H6   H   0.686235387164403   0.962871329320934   0.309814616117214   1.0
H7   H   0.315389089218337   0.867344412844639   0.497403891771888   1.0
H8   H   0.596430134970724   0.103494245608035   0.655787426682042   1.0
H9   H   0.285986592966446   0.306996709052501   0.475739459751413   1.0
H10   H   0.641014983280234   0.367880030211961   0.288575962368188   1.0
N14   N   0.537096064804852   0.140742324727866   0.325657873519301   1.0
