data_1
_audit_creation_method   'Generated by vasp2cif'
_cell_length_a    5.80736521641
_cell_length_b    4.4110539945
_cell_length_c    7.95086602697
_cell_angle_alpha    85.9641315057
_cell_angle_beta    85.2791957875
_cell_angle_gamma    78.5804099061
_symmetry_space_group_name_H-M    'P 1'
loop_
_atom_site_label
_atom_site_type_symbol
_atom_site_fract_x
_atom_site_fract_y
_atom_site_fract_z
_atom_site_occupancy
C1   C   0.466889966176307   0.530320609601612   0.532216596923506   1.0
C2   C   0.662955343143764   0.712021905094045   0.494039312212204   1.0
H3   H   0.822534233353447   0.565210876582806   0.441753286049414   1.0
H4   H   0.613258611332730   0.903651941442412   0.401510054419369   1.0
H5   H   0.515761873286822   0.369187990794191   0.281949023886621   1.0
H6   H   0.289601811753994   0.661612681457956   0.308495674610281   1.0
H7   H   0.524214311760114   0.311524202169813   0.602730370229180   1.0
H8   H   0.702183372206524   0.804458067363400   0.609707858728413   1.0
H9   H   0.314374275072168   0.664491699237432   0.599851491685590   1.0
H10   H   0.262269605278272   0.307969155381660   0.383305985994725   1.0
Cl11   Cl   0.543375483996067   0.730756838403899   0.982767287901356   1.0
Cl12   Cl   0.006510037675279   0.091516028445143   0.222262757004885   1.0
Cl13   Cl   0.030238840404102   0.144289546903192   0.708677917279727   1.0
N14   N   0.378711656745013   0.458889016628653   0.366446163250241   1.0
