data_1
_audit_creation_method   'Generated by vasp2cif'
_cell_length_a    8.68771156313
_cell_length_b    4.12409548286
_cell_length_c    5.44112627631
_cell_angle_alpha    90.3312484424
_cell_angle_beta    89.90540852
_cell_angle_gamma    90.3015961995
_symmetry_space_group_name_H-M    'P 1'
loop_
_atom_site_label
_atom_site_type_symbol
_atom_site_fract_x
_atom_site_fract_y
_atom_site_fract_z
_atom_site_occupancy
C1   C   0.374909941291726   0.766883091355382   0.410804086066648   1.0
C2   C   0.509347774821919   0.532669608164845   0.414636294103857   1.0
H3   H   0.509456067648976   0.374820755696568   0.252799862156238   1.0
H4   H   0.615650882800765   0.675086747920531   0.413039923284259   1.0
H5   H   0.207858361501685   0.441444711511608   0.260115811811026   1.0
H6   H   0.130262071039013   0.752148234997136   0.413991525400775   1.0
H7   H   0.374691060086178   0.922843154449552   0.572784843942408   1.0
H8   H   0.508692572468085   0.385768953597619   0.581043645344252   1.0
H9   H   0.374757971677035   0.911038137378775   0.243911380260940   1.0
H10   H   0.208900393512089   0.447306745697190   0.569995248610340   1.0
Cl11   Cl   0.903201597167303   0.146490452295119   0.413883223070037   1.0
Cl12   Cl   0.170155521063236   0.120734059771479   0.912986522963678   1.0
Cl13   Cl   0.635280664621604   0.964366251233265   0.913288843056513   1.0
N14   N   0.220364408832381   0.589395520439624   0.414006384905981   1.0
