data_1
_audit_creation_method   'Generated by vasp2cif'
_cell_length_a    10.6449717325
_cell_length_b    4.53612895895
_cell_length_c    4.29198465831
_cell_angle_alpha    90.1789240236
_cell_angle_beta    89.5258842774
_cell_angle_gamma    85.717541824
_symmetry_space_group_name_H-M    'P 1'
loop_
_atom_site_label
_atom_site_type_symbol
_atom_site_fract_x
_atom_site_fract_y
_atom_site_fract_z
_atom_site_occupancy
C1   C   0.597751116350452   0.717020435226196   0.549380935974611   1.0
C2   C   0.509129691022572   0.471865289430504   0.516251997999106   1.0
H3   H   0.516320590675001   0.320908985821852   0.714030805721208   1.0
H4   H   0.412423021686777   0.569406924830616   0.508805804736610   1.0
H5   H   0.750838102049215   0.447069321851323   0.741196904106360   1.0
H6   H   0.793475685736773   0.761472406135397   0.584562099213649   1.0
H7   H   0.590706771039805   0.869892906978464   0.354192122275251   1.0
H8   H   0.527393546825415   0.347157449603777   0.300189036282824   1.0
H9   H   0.580739808499786   0.841549839813034   0.765007111954205   1.0
H10   H   0.760328903712271   0.475237550363303   0.358016918409021   1.0
N14   N   0.734577407900460   0.593715726923584   0.558044179333528   1.0
