data_1
_audit_creation_method   'Generated by vasp2cif'
_cell_length_a    5.82835088262
_cell_length_b    5.79929003456
_cell_length_c    7.17042635384
_cell_angle_alpha    73.6790627245
_cell_angle_beta    87.4307919843
_cell_angle_gamma    86.2309126443
_symmetry_space_group_name_H-M    'P 1'
loop_
_atom_site_label
_atom_site_type_symbol
_atom_site_fract_x
_atom_site_fract_y
_atom_site_fract_z
_atom_site_occupancy
C1   C   0.682610241075614   0.675001537489546   0.390354835390765   1.0
C2   C   0.619443191762715   0.434258625491125   0.366383982815057   1.0
C3   C   0.628164922161931   0.440004893747317   0.151766174194362   1.0
H4   H   0.794115046545051   0.497810917469026   0.082974990844147   1.0
H5   H   0.603614854608612   0.261756829944409   0.136841805702646   1.0
H6   H   0.446842172438286   0.390999913587763   0.428917075378742   1.0
H7   H   0.741086116001308   0.292527511143590   0.445788264975184   1.0
H8   H   0.494725596226393   0.628180693675843   0.656986857464361   1.0
H9   H   0.686674619524215   0.839188901599688   0.623447121900708   1.0
H10   H   0.492388229049323   0.562579570758490   0.071653711104515   1.0
H11   H   0.860750590605133   0.712956178302699   0.346195613998127   1.0
H12   H   0.569696919743161   0.823964157102335   0.310378466713112   1.0
H13   H   0.776473389328154   0.552965585406545   0.684695615972931   1.0
N17   N   0.658110710722224   0.674684198729081   0.601848162658894   1.0
