data_1
_audit_creation_method   'Generated by vasp2cif'
_cell_length_a    6.14572875115
_cell_length_b    5.89189831969
_cell_length_c    6.15950235489
_cell_angle_alpha    97.7651222366
_cell_angle_beta    81.2484907937
_cell_angle_gamma    96.2301394757
_symmetry_space_group_name_H-M    'P 1'
loop_
_atom_site_label
_atom_site_type_symbol
_atom_site_fract_x
_atom_site_fract_y
_atom_site_fract_z
_atom_site_occupancy
C1   C   0.495190470544392   0.580628026985282   0.621357424851562   1.0
C2   C   0.495807983798494   0.420655237933740   0.796151739265276   1.0
C3   C   0.624797521849360   0.211449975892928   0.708674739530654   1.0
H4   H   0.796770570456138   0.266113861799889   0.648296713310325   1.0
H5   H   0.624755482411455   0.104749302427739   0.839350193813276   1.0
H6   H   0.325002008746947   0.368518700745726   0.865200043421945   1.0
H7   H   0.572713259498896   0.521378887297422   0.931741742567258   1.0
H8   H   0.386425404931503   0.315032449531344   0.375140360092017   1.0
H9   H   0.351086538117454   0.583759939647003   0.331310234427789   1.0
H10   H   0.552105026941535   0.104205070291238   0.573941795839513   1.0
H11   H   0.431826743887180   0.743892397809030   0.691431787198780   1.0
H12   H   0.659586976676489   0.610100478342970   0.529642563002515   1.0
H13   H   0.182833841681644   0.461131529802257   0.524637078944702   1.0
N17   N   0.345066341644212   0.475240560241598   0.451412593325692   1.0
