data_1
_audit_creation_method   'Generated by vasp2cif'
_cell_length_a    8.08758435982
_cell_length_b    4.29399607952
_cell_length_c    7.18770428366
_cell_angle_alpha    75.2115908347
_cell_angle_beta    83.1156999312
_cell_angle_gamma    76.2308866886
_symmetry_space_group_name_H-M    'P 1'
loop_
_atom_site_label
_atom_site_type_symbol
_atom_site_fract_x
_atom_site_fract_y
_atom_site_fract_z
_atom_site_occupancy
C1   C   0.913934437100252   0.352207011030245   0.375585985835031   1.0
C2   C   0.743780505511978   0.248711592239395   0.436911156079113   1.0
C3   C   0.659654354258294   0.236728473390123   0.258259809168507   1.0
H4   H   0.542104853070839   0.147512220100062   0.304820397626386   1.0
H5   H   0.744573793266539   0.072241461973029   0.176178248790365   1.0
H6   H   0.764264275581681   0.004317216471996   0.536635657124229   1.0
H7   H   0.658074626634310   0.418139412868854   0.515404514431673   1.0
H8   H   0.041714837303481   0.028656181676197   0.617518209399933   1.0
H9   H   0.978754578144404   0.409760370695189   0.644626569327443   1.0
H10   H   0.986311103256384   0.218527013107611   0.271889943931264   1.0
H11   H   0.630026946543659   0.482510562524247   0.161335710976886   1.0
H12   H   0.898834407918955   0.615300525615069   0.311072406740529   1.0
H13   H   0.146072436569710   0.318344274480772   0.494146845893489   1.0
N17   N   0.026779932081070   0.272556359760586   0.542629096531549   1.0
