data_1
_audit_creation_method   'Generated by vasp2cif'
_cell_length_a    5.75684117795
_cell_length_b    4.21003601484
_cell_length_c    10.3181369056
_cell_angle_alpha    89.0817249647
_cell_angle_beta    115.628481665
_cell_angle_gamma    99.4745263562
_symmetry_space_group_name_H-M    'P 1'
loop_
_atom_site_label
_atom_site_type_symbol
_atom_site_fract_x
_atom_site_fract_y
_atom_site_fract_z
_atom_site_occupancy
C1   C   0.009968330694564   0.580848683442009   0.448499792216880   1.0
C2   C   0.732070326727190   0.639961422569961   0.407567808212289   1.0
C3   C   0.612696320304603   0.781984183176481   0.259995788190518   1.0
H4   H   0.737533002148439   0.999607357593729   0.252616882445757   1.0
H5   H   0.423462368100053   0.843593488747586   0.239296855365642   1.0
H6   H   0.608114975876639   0.411519504651238   0.406677381905143   1.0
H7   H   0.734201822418384   0.799871096203967   0.491173375590134   1.0
H8   H   0.983924945577917   0.271514796489469   0.608886917439964   1.0
H9   H   0.173616494458869   0.620385506096739   0.679100014224017   1.0
H10   H   0.014763581069483   0.407954844270524   0.372430242168180   1.0
H11   H   0.580490468176494   0.607365729020260   0.173867805186757   1.0
H12   H   0.145389337195062   0.801663875696259   0.454315735616991   1.0
H13   H   0.287089816175639   0.346517232920464   0.616377855149098   1.0
N17   N   0.121473186938261   0.444928998008976   0.596513984328826   1.0
