data_1
_audit_creation_method   'Generated by vasp2cif'
_cell_length_a    11.0698206241
_cell_length_b    4.23168140991
_cell_length_c    5.82311533477
_cell_angle_alpha    93.7572968084
_cell_angle_beta    61.4074042397
_cell_angle_gamma    108.773340417
_symmetry_space_group_name_H-M    'P 1'
loop_
_atom_site_label
_atom_site_type_symbol
_atom_site_fract_x
_atom_site_fract_y
_atom_site_fract_z
_atom_site_occupancy
C1   C   0.582392938351215   0.705947669073794   0.009139930859659   1.0
C2   C   0.642912459122380   0.873535101838010   0.733584944544409   1.0
C3   C   0.792027888824213   0.147658908192299   0.641816519488982   1.0
H4   H   0.791731947213547   0.312927766779860   0.794500629970235   1.0
H5   H   0.821375575637491   0.302625818733332   0.468237350300897   1.0
H6   H   0.653164274689086   0.683461551229488   0.594131456212383   1.0
H7   H   0.564524154170109   0.977925689127849   0.731780428886668   1.0
H8   H   0.433455580746578   0.291343171661626   0.946892292754893   1.0
H9   H   0.352149448108950   0.537931756620817   0.150622275518805   1.0
H10   H   0.654362165985570   0.586151337141832   0.016235454977420   1.0
H11   H   0.877178635640273   0.036919354346334   0.590961410270222   1.0
H12   H   0.565890397649083   0.883268774962511   0.158039363449286   1.0
H13   H   0.405725684739403   0.284278234701364   0.259463614099560   1.0
Cl14   Cl   0.156935914693097   0.672605608573886   0.314550765967835   1.0
Cl15   Cl   0.364587397631254   0.132996466443279   0.641332635817869   1.0
Cl16   Cl   0.905658270065299   0.803249552445338   0.054702874630597   1.0
N17   N   0.435226598929375   0.436476423626963   0.095858048809547   1.0
