data_1
_audit_creation_method   'Generated by vasp2cif'
_cell_length_a    5.77074423483
_cell_length_b    5.75122581892
_cell_length_c    9.36241221611
_cell_angle_alpha    62.8433864333
_cell_angle_beta    123.778261198
_cell_angle_gamma    96.2343647563
_symmetry_space_group_name_H-M    'P 1'
loop_
_atom_site_label
_atom_site_type_symbol
_atom_site_fract_x
_atom_site_fract_y
_atom_site_fract_z
_atom_site_occupancy
C1   C   0.892417736066529   0.588837940947613   0.386731533190107   1.0
C2   C   0.708374569582543   0.783351506010145   0.370468130116255   1.0
C3   C   0.538718176690550   0.012557826408713   0.160319802809327   1.0
H4   H   0.681943332571724   0.105953503169314   0.118905302428805   1.0
H5   H   0.416836782409006   0.161521078551973   0.146739999425984   1.0
H6   H   0.566315394739865   0.680854480335154   0.411194487755003   1.0
H7   H   0.843861865597208   0.861554710961238   0.471614072175862   1.0
H8   H   0.953517843796434   0.266801235862021   0.643684453721351   1.0
H9   H   0.218731330120464   0.429293310629692   0.688302935066249   1.0
H10   H   0.762832357315411   0.500030737644877   0.292536225786186   1.0
H11   H   0.392279951735720   0.942402810492260   0.056236129061853   1.0
H12   H   0.037863148919601   0.687028724615185   0.348794658298174   1.0
H13   H   0.190019628822291   0.222318131700947   0.601036218468788   1.0
N17   N   0.076356880104191   0.359249595306275   0.593348357911356   1.0
