data_1
_audit_creation_method   'Generated by vasp2cif'
_cell_length_a    7.53346642593
_cell_length_b    5.92925306884
_cell_length_c    6.00775395889
_cell_angle_alpha    83.825113082
_cell_angle_beta    102.969658661
_cell_angle_gamma    106.302860278
_symmetry_space_group_name_H-M    'P 1'
loop_
_atom_site_label
_atom_site_type_symbol
_atom_site_fract_x
_atom_site_fract_y
_atom_site_fract_z
_atom_site_occupancy
C1   C   0.189402296669911   0.671292215649160   0.506538898175812   1.0
C2   C   0.503207281165409   0.254645157965413   0.483502305201888   1.0
C3   C   0.337460807468183   0.364387288723378   0.434458798435877   1.0
C4   C   0.366716078182002   0.581404655596451   0.570476577514967   1.0
H5   H   0.602503547688350   0.390065327273540   0.181674674356522   1.0
H6   H   0.764645544353797   0.312201504365433   0.383687363216239   1.0
H7   H   0.710457900385926   0.565796342601764   0.401170004742262   1.0
H8   H   0.155123944555221   0.705392198962009   0.321555391935611   1.0
H9   H   0.069102993300866   0.539100782141659   0.556690672950936   1.0
H10   H   0.207289100564324   0.831200777973109   0.591598645752086   1.0
H11   H   0.214386036026013   0.229053026098072   0.473017649979546   1.0
H12   H   0.302753150001749   0.410320530437090   0.250607004401999   1.0
H13   H   0.396456383275798   0.535360342278821   0.754721151044684   1.0
H14   H   0.489393349380322   0.720363279052322   0.534134209109098   1.0
H15   H   0.569247522270359   0.254056007201491   0.664185372335808   1.0
H16   H   0.462355838977125   0.077415070849845   0.423490289100414   1.0
N20   N   0.655764761045013   0.392602897351800   0.355288912625603   1.0
