data_1
_audit_creation_method   'Generated by vasp2cif'
_cell_length_a    6.00713296075
_cell_length_b    5.92659492424
_cell_length_c    7.55418939322
_cell_angle_alpha    73.7108433202
_cell_angle_beta    76.9141560444
_cell_angle_gamma    83.633313627
_symmetry_space_group_name_H-M    'P 1'
loop_
_atom_site_label
_atom_site_type_symbol
_atom_site_fract_x
_atom_site_fract_y
_atom_site_fract_z
_atom_site_occupancy
C1   C   0.522338763371970   0.683159905251308   0.811489162635070   1.0
C2   C   0.498513482981430   0.268615291532363   0.496927398019643   1.0
C3   C   0.448979013042205   0.377933008575816   0.662618130091616   1.0
C4   C   0.583947780291581   0.595387524076671   0.633410082995368   1.0
H5   H   0.197800043685014   0.407495681660386   0.396654514053225   1.0
H6   H   0.400322089944559   0.327680028988659   0.235659375928542   1.0
H7   H   0.418856217192989   0.580972071218625   0.289889290403636   1.0
H8   H   0.336994408115587   0.714203848418620   0.849120949400721   1.0
H9   H   0.576885972562330   0.550999310862800   0.929559431588387   1.0
H10   H   0.605189109301996   0.844415320501760   0.793116382492592   1.0
H11   H   0.488554768890801   0.242376463871317   0.784901645026189   1.0
H12   H   0.264787423567050   0.423473357717235   0.697836625573686   1.0
H13   H   0.768491576011101   0.550364469995294   0.601191376900509   1.0
H14   H   0.544952831835865   0.735211260333514   0.512513362220716   1.0
H15   H   0.679574026338202   0.266707211849081   0.431721124913779   1.0
H16   H   0.437601589689819   0.091928042257621   0.537099598816653   1.0
N20   N   0.371748630023916   0.408254397589140   0.344286613494532   1.0
