data_1
_audit_creation_method   'Generated by vasp2cif'
_cell_length_a    6.003684029
_cell_length_b    5.91962942355
_cell_length_c    7.57236770048
_cell_angle_alpha    73.6794293177
_cell_angle_beta    77.2422190647
_cell_angle_gamma    83.8197271091
_symmetry_space_group_name_H-M    'P 1'
loop_
_atom_site_label
_atom_site_type_symbol
_atom_site_fract_x
_atom_site_fract_y
_atom_site_fract_z
_atom_site_occupancy
C1   C   0.532764545184051   0.650012060719888   0.809024172668337   1.0
C2   C   0.511029093559856   0.236222313323268   0.493639397342705   1.0
C3   C   0.459301181711872   0.346280739305833   0.658326804329910   1.0
C4   C   0.596298971793701   0.562194921625093   0.631685079822510   1.0
H5   H   0.215758811719382   0.379739185987802   0.384898631998830   1.0
H6   H   0.421974003436120   0.297752456710647   0.229142763859848   1.0
H7   H   0.439991224210516   0.550403983582662   0.284632871368920   1.0
H8   H   0.347458337815489   0.680950261584009   0.844521860541541   1.0
H9   H   0.585991258726139   0.517611110187019   0.927582343361792   1.0
H10   H   0.615426574907197   0.811495795351348   0.791686120813225   1.0
H11   H   0.495045793097262   0.210092399156721   0.781702999299235   1.0
H12   H   0.275513508940008   0.394105578755749   0.689730541771198   1.0
H13   H   0.780335269183432   0.515153503376894   0.602641523737148   1.0
H14   H   0.560751865083482   0.702975498270362   0.510081242787642   1.0
H15   H   0.692765359656946   0.231075262549204   0.432569206143462   1.0
H16   H   0.447124826668464   0.060526086639911   0.532708341578157   1.0
N20   N   0.390375513659159   0.378158192240434   0.337594973200566   1.0
