data_1
_audit_creation_method   'Generated by vasp2cif'
_cell_length_a    5.85607588005
_cell_length_b    6.19623401484
_cell_length_c    6.16813968666
_cell_angle_alpha    87.692822118
_cell_angle_beta    95.0170567254
_cell_angle_gamma    80.2907977316
_symmetry_space_group_name_H-M    'P 1'
loop_
_atom_site_label
_atom_site_type_symbol
_atom_site_fract_x
_atom_site_fract_y
_atom_site_fract_z
_atom_site_occupancy
C1   C   0.233352356139726   0.794750016040851   0.537422355473943   1.0
C2   C   0.344561622235219   0.881601223980624   0.345497568819283   1.0
C3   C   0.560175205628255   0.978509333025805   0.412980634376105   1.0
H4   H   0.506254697564181   0.126993363308308   0.497982774993616   1.0
H5   H   0.683049701064832   0.864082850923161   0.524286949420471   1.0
H6   H   0.646555176754369   0.022262869772284   0.272469289665310   1.0
H7   H   0.501658574270870   0.742455726555718   0.072726900201935   1.0
H8   H   0.217415582873024   0.002272952472303   0.244745841000650   1.0
H9   H   0.196592387818903   0.926038395329151   0.648620432538415   1.0
H10   H   0.351824434128602   0.658343193608381   0.627461354144756   1.0
H11   H   0.071600367850714   0.738491453948633   0.485712036787326   1.0
H12   H   0.263424440788903   0.640847530052646   0.127360521934918   1.0
H13   H   0.519802542131991   0.563157859761624   0.281057351522421   1.0
N17   N   0.409711991608241   0.693689800898980   0.196357235634572   1.0
