data_1
_audit_creation_method   'Generated by vasp2cif'
_cell_length_a    6.19439884033
_cell_length_b    6.08001880261
_cell_length_c    5.94667516723
_cell_angle_alpha    79.167367466
_cell_angle_beta    84.2725751917
_cell_angle_gamma    91.4479054551
_symmetry_space_group_name_H-M    'P 1'
loop_
_atom_site_label
_atom_site_type_symbol
_atom_site_fract_x
_atom_site_fract_y
_atom_site_fract_z
_atom_site_occupancy
C1   C   0.424748964696114   0.641357464022342   0.348803070691915   1.0
C2   C   0.607723630878084   0.756826903555712   0.442048822932648   1.0
C3   C   0.535248490986476   0.853773189445796   0.653611069988401   1.0
H4   H   0.429587474784434   0.991133214831059   0.602293900109835   1.0
H5   H   0.444096049036482   0.728118379501531   0.787122329748023   1.0
H6   H   0.673019061914502   0.919554755632952   0.724306129979006   1.0
H7   H   0.899329782994705   0.656015749776259   0.583621061685903   1.0
H8   H   0.689964170349775   0.887095357409343   0.307067001456687   1.0
H9   H   0.297323888614152   0.759695356822959   0.312511420128985   1.0
H10   H   0.353233940537855   0.496436618420269   0.475178527492567   1.0
H11   H   0.480563311361642   0.583855904470994   0.190792171475252   1.0
H12   H   0.853261386432528   0.536005352998295   0.359446396549501   1.0
H13   H   0.712518178975159   0.448373889341838   0.621028930910086   1.0
Cl14   Cl   0.548381366522598   0.240062779779493   0.981894107998386   1.0
Cl15   Cl   0.015629535675629   0.644189947661069   0.970918276901493   1.0
Cl16   Cl   0.044218612078936   0.133464707450692   0.462964946048615   1.0
N17   N   0.780902034113645   0.586660371018198   0.504178006969290   1.0
