data_1
_audit_creation_method   'Generated by vasp2cif'
_cell_length_a    5.85867542258
_cell_length_b    4.36084280535
_cell_length_c    8.8463248662
_cell_angle_alpha    82.7730646452
_cell_angle_beta    85.5701620067
_cell_angle_gamma    95.393422374
_symmetry_space_group_name_H-M    'P 1'
loop_
_atom_site_label
_atom_site_type_symbol
_atom_site_fract_x
_atom_site_fract_y
_atom_site_fract_z
_atom_site_occupancy
C1   C   0.495818448623396   0.584818456119208   0.650323361640744   1.0
C2   C   0.434506853464299   0.422038485172202   0.514014525528601   1.0
C3   C   0.285559386240287   0.600199739546703   0.407643250921168   1.0
H4   H   0.138048340128201   0.661213375316294   0.476762694918946   1.0
H5   H   0.224856320718196   0.462008306591251   0.321445245039044   1.0
H6   H   0.378036284817341   0.815651912880007   0.346552667826160   1.0
H7   H   0.633039229504227   0.242691852368885   0.335532893368360   1.0
H8   H   0.349639972178004   0.189554213737424   0.553696765879209   1.0
H9   H   0.565364602650696   0.428703759012187   0.736896540523716   1.0
H10   H   0.623032802693743   0.786534210850725   0.616023276873435   1.0
H11   H   0.341815704579133   0.666128566125565   0.702619812748381   1.0
H12   H   0.745953357803984   0.583306343240466   0.371341438166105   1.0
H13   H   0.768179613012947   0.264791545061023   0.495095954779735   1.0
N17   N   0.659561093361496   0.372635873031356   0.423698754255056   1.0
