data_1
_audit_creation_method   'Generated by vasp2cif'
_cell_length_a    6.03684319134
_cell_length_b    5.88920211824
_cell_length_c    5.82212425763
_cell_angle_alpha    85.3504242068
_cell_angle_beta    97.1330414268
_cell_angle_gamma    97.9512303441
_symmetry_space_group_name_H-M    'P 1'
loop_
_atom_site_label
_atom_site_type_symbol
_atom_site_fract_x
_atom_site_fract_y
_atom_site_fract_z
_atom_site_occupancy
Cl1   Cl   0.494995275130711   0.890084854485699   0.975561194032460   1.0
Cl2   Cl   0.949203226814457   0.937937866247238   0.494708357378714   1.0
Cl3   Cl   0.936178026979410   0.459231761285502   0.979605481532254   1.0
H4   H   0.489518397159514   0.642133010652108   0.310995178440355   1.0
H5   H   0.785630467496127   0.387032217213638   0.400085711828386   1.0
H6   H   0.618454638285436   0.650675865678435   0.576587030403948   1.0
H7   H   0.176059794568028   0.375073399974803   0.449862526935561   1.0
H8   H   0.319554216486745   0.400549817917838   0.736702283113551   1.0
H9   H   0.216646611279918   0.644864047590663   0.580724308793390   1.0
H10   H   0.517597095778669   0.245697497330146   0.292604893619823   1.0
H11   H   0.608752236813951   0.226456930365273   0.597852754559381   1.0
C12   C   0.286950599974187   0.487619291745721   0.566168304288897   1.0
C13   C   0.613925340171301   0.334450607296833   0.437537432888007   1.0
N15   N   0.508554904561197   0.546231070004356   0.468258985692000   1.0
