data_1
_audit_creation_method   'Generated by vasp2cif'
_cell_length_a    5.90424469291
_cell_length_b    5.93781163591
_cell_length_c    5.8978487367
_cell_angle_alpha    85.1944381636
_cell_angle_beta    99.884801599
_cell_angle_gamma    98.7883918938
_symmetry_space_group_name_H-M    'P 1'
loop_
_atom_site_label
_atom_site_type_symbol
_atom_site_fract_x
_atom_site_fract_y
_atom_site_fract_z
_atom_site_occupancy
Cl1   Cl   0.463945415821853   0.960586470870768   0.948006063885020   1.0
Cl2   Cl   0.900171807148249   0.937574782308147   0.488188809359252   1.0
Cl3   Cl   0.973851661605552   0.473653773905750   0.005437532776496   1.0
H4   H   0.334204023334263   0.566293015751012   0.250652226580038   1.0
H5   H   0.667771091858514   0.375556040240395   0.265952084973234   1.0
H6   H   0.556595037164957   0.693402865633043   0.431752117381656   1.0
H7   H   0.156228252718329   0.363207682221906   0.553005183461549   1.0
H8   H   0.396748474668631   0.478477258663577   0.758684311007168   1.0
H9   H   0.206628544331245   0.662623554399731   0.596886503365414   1.0
H10   H   0.446281846132806   0.192028919173001   0.391438657431785   1.0
H11   H   0.686440759150561   0.340367519600214   0.572811368721612   1.0
C12   C   0.286969321254967   0.510550739115083   0.594522612753925   1.0
C13   C   0.570416239925434   0.347837075642348   0.408662834962369   1.0
N15   N   0.438101906577240   0.545826369553701   0.408985720905548   1.0
