data_1
_audit_creation_method   'Generated by vasp2cif'
_cell_length_a    5.93471438873
_cell_length_b    5.88998644934
_cell_length_c    5.9269726718
_cell_angle_alpha    86.2036626322
_cell_angle_beta    82.6388536705
_cell_angle_gamma    79.0959603247
_symmetry_space_group_name_H-M    'P 1'
loop_
_atom_site_label
_atom_site_type_symbol
_atom_site_fract_x
_atom_site_fract_y
_atom_site_fract_z
_atom_site_occupancy
Cl1   Cl   0.064330324015337   0.965593011206117   0.477752139500886   1.0
Cl2   Cl   0.549561743374781   0.027911274535207   0.988974024697413   1.0
Cl3   Cl   0.981281340153473   0.475983972461052   0.010931130173567   1.0
H4   H   0.408803479365645   0.711242892040005   0.372193299126962   1.0
H5   H   0.272693680317623   0.361206100175536   0.313509384248540   1.0
H6   H   0.622892405536255   0.523534718059686   0.238378871599565   1.0
H7   H   0.561920030989000   0.598439251096657   0.734108839554814   1.0
H8   H   0.792487935601919   0.407834959170131   0.580390904652482   1.0
H9   H   0.761623301498688   0.713906116633709   0.527202113562261   1.0
H10   H   0.264978704057988   0.413432673262257   0.609167214448725   1.0
H11   H   0.492022994019344   0.204216028315642   0.474168425399327   1.0
C12   C   0.670798671457916   0.570541550084656   0.572371183705954   1.0
C13   C   0.375068910606146   0.368020483385529   0.451051230072778   1.0
N15   N   0.518596667848037   0.554155871749593   0.391276071460865   1.0
