data_1
_audit_creation_method   'Generated by vasp2cif'
_cell_length_a    5.80113044449
_cell_length_b    4.27026546928
_cell_length_c    8.28921137743
_cell_angle_alpha    88.1685507335
_cell_angle_beta    82.6912818812
_cell_angle_gamma    82.5349955291
_symmetry_space_group_name_H-M    'P 1'
loop_
_atom_site_label
_atom_site_type_symbol
_atom_site_fract_x
_atom_site_fract_y
_atom_site_fract_z
_atom_site_occupancy
Cl1   Cl   0.972022589919462   0.107570548310164   0.796901128825802   1.0
Cl2   Cl   0.463515639457682   0.737472251002998   0.063609622934770   1.0
Cl3   Cl   0.885054719163811   0.085624826871928   0.303122723308341   1.0
H4   H   0.272184652038547   0.284883464317524   0.551574609435441   1.0
H5   H   0.642449899225923   0.452414338287063   0.418129221714814   1.0
H6   H   0.510891241107515   0.810474218508404   0.392455435446721   1.0
H7   H   0.561852788800451   0.471421525925955   0.709125644390262   1.0
H8   H   0.712593721773899   0.792673138254493   0.629951311583135   1.0
H9   H   0.403144775439884   0.855258907939067   0.693323736528704   1.0
H10   H   0.279209471489437   0.396593074399611   0.340343750621962   1.0
H11   H   0.133576580102854   0.661077880164278   0.494792796448564   1.0
C12   C   0.548876976645630   0.690900175267558   0.638220773438420   1.0
C13   C   0.279970188576641   0.478047664415627   0.463098832033509   1.0
N15   N   0.505166082594542   0.615469296916430   0.468794566745793   1.0
