data_1
_audit_creation_method   'Generated by vasp2cif'
_cell_length_a    8.22232286145
_cell_length_b    4.26299713806
_cell_length_c    6.81690926549
_cell_angle_alpha    122.46607425
_cell_angle_beta    92.6458957392
_cell_angle_gamma    93.7862038015
_symmetry_space_group_name_H-M    'P 1'
loop_
_atom_site_label
_atom_site_type_symbol
_atom_site_fract_x
_atom_site_fract_y
_atom_site_fract_z
_atom_site_occupancy
H4   H   0.445456614829931   0.507259217445901   0.257111408946777   1.0
H5   H   0.541569065942495   0.073515164246518   0.645925352687852   1.0
H6   H   0.591791871257208   0.299521659233198   0.521497377989364   1.0
H7   H   0.256956079080881   0.967953790575283   0.507058646987998   1.0
H8   H   0.327658396878101   0.453897050062676   0.659018757989747   1.0
H9   H   0.302806861918262   0.175685554493473   0.345616172351794   1.0
H10   H   0.661797588624862   0.656555384030296   0.313906478090249   1.0
H11   H   0.533386981818278   0.753171443500120   0.137729693937458   1.0
C12   C   0.336106744986699   0.179177636097454   0.503190401132432   1.0
C13   C   0.540495045736704   0.721007657340063   0.285842901858520   1.0
N15   N   0.510444758673125   0.086762744387171   0.501200016659867   1.0
