data_1
_audit_creation_method   'Generated by vasp2cif'
_cell_length_a    5.7260439589
_cell_length_b    4.24053965782
_cell_length_c    8.17022281816
_cell_angle_alpha    82.9285509557
_cell_angle_beta    86.2742486171
_cell_angle_gamma    86.0987972129
_symmetry_space_group_name_H-M    'P 1'
loop_
_atom_site_label
_atom_site_type_symbol
_atom_site_fract_x
_atom_site_fract_y
_atom_site_fract_z
_atom_site_occupancy
H4   H   0.267046827165892   0.162011061082893   0.530404271613726   1.0
H5   H   0.675479072375168   0.333645039531220   0.506661173293189   1.0
H6   H   0.583890526808275   0.683489123625726   0.418649249858817   1.0
H7   H   0.465498700988334   0.390006444517724   0.761093775071927   1.0
H8   H   0.611481016869227   0.747259444261807   0.697832800847877   1.0
H9   H   0.304260121171204   0.733756486454183   0.669369528913798   1.0
H10   H   0.388907884675376   0.250417645119249   0.322012432402452   1.0
H11   H   0.190111569620569   0.531012504002533   0.414129950669597   1.0
C12   C   0.473480008480252   0.600423485310529   0.670701271971858   1.0
C13   C   0.329012914852896   0.345217185445598   0.436229686147477   1.0
N15   N   0.530903302082777   0.493882491434000   0.501893701170232   1.0
