data_1
_audit_creation_method   'Generated by vasp2cif'
_cell_length_a    6.01775439791
_cell_length_b    5.93585879848
_cell_length_c    5.93836640708
_cell_angle_alpha    88.5655285588
_cell_angle_beta    99.8913959548
_cell_angle_gamma    81.1355139427
_symmetry_space_group_name_H-M    'P 1'
loop_
_atom_site_label
_atom_site_type_symbol
_atom_site_fract_x
_atom_site_fract_y
_atom_site_fract_z
_atom_site_occupancy
C1   C   0.355907067703598   0.405262937164075   0.599474360888486   1.0
C2   C   0.514232407388377   0.522086834285744   0.486849950702137   1.0
H3   H   0.701985447763533   0.504889804837049   0.226359822294278   1.0
H4   H   0.688247754704925   0.795550627962200   0.504334079087151   1.0
H5   H   0.354750966212180   0.231498817452149   0.545269967027714   1.0
H6   H   0.182275296774037   0.500494018508370   0.554411461722978   1.0
H7   H   0.405644581742258   0.401506225127982   0.785353894383732   1.0
H8   H   0.522331647643668   0.773688051216233   0.713388746983576   1.0
H9   H   0.544593142691355   0.286026686277651   0.246886012663623   1.0
Cl10   Cl   0.001176148524451   0.979987097514744   0.533754231168778   1.0
Cl11   Cl   0.005006164056169   0.473366746192589   0.024495940499570   1.0
Cl12   Cl   0.514151434565186   0.962726615324215   0.044845224471004   1.0
N13   N   0.588752339486049   0.435459557469095   0.305448477900398   1.0
N14   N   0.573396849810706   0.713950476721067   0.568342065539866   1.0
