data_1
_audit_creation_method   'Generated by vasp2cif'
_cell_length_a    5.98471751191
_cell_length_b    5.98186512313
_cell_length_c    5.97292463313
_cell_angle_alpha    91.7515834149
_cell_angle_beta    100.148400649
_cell_angle_gamma    100.866485652
_symmetry_space_group_name_H-M    'P 1'
loop_
_atom_site_label
_atom_site_type_symbol
_atom_site_fract_x
_atom_site_fract_y
_atom_site_fract_z
_atom_site_occupancy
C1   C   0.649393800455619   0.506594578382840   0.520021368660362   1.0
C2   C   0.500862767078088   0.624557994337291   0.639904912074407   1.0
H3   H   0.323177650214999   0.603461414235350   0.906981694019209   1.0
H4   H   0.314637491670183   0.882846659770849   0.620193709326606   1.0
H5   H   0.787140396351313   0.456912612847906   0.641790548974163   1.0
H6   H   0.726777490513418   0.614027661379257   0.398954455578011   1.0
H7   H   0.542362225051102   0.351634606495687   0.426891967877821   1.0
H8   H   0.473448052311385   0.864132074896226   0.407099042764696   1.0
H9   H   0.488018750284886   0.397865394530406   0.887207993221594   1.0
N13   N   0.441092928695800   0.543644693156982   0.829515432970807   1.0
N14   N   0.430407051103835   0.806658614063239   0.555350334084410   1.0
