data_1
_audit_creation_method   'Generated by vasp2cif'
_cell_length_a    5.99618565947
_cell_length_b    5.90514735941
_cell_length_c    5.96750332521
_cell_angle_alpha    83.2684611987
_cell_angle_beta    103.653262021
_cell_angle_gamma    89.2875557695
_symmetry_space_group_name_H-M    'P 1'
loop_
_atom_site_label
_atom_site_type_symbol
_atom_site_fract_x
_atom_site_fract_y
_atom_site_fract_z
_atom_site_occupancy
C1   C   0.599285165551088   0.485740471445126   0.418321108247433   1.0
C2   C   0.502213525090525   0.635056073826796   0.560534779408009   1.0
H3   H   0.277100006656362   0.652722002148565   0.771689602491591   1.0
H4   H   0.540464725204338   0.939505214518810   0.694460599528419   1.0
H5   H   0.588475887786196   0.573628965753478   0.244170000457700   1.0
H6   H   0.510007252651910   0.326851867503052   0.404402620182992   1.0
H7   H   0.780864122475016   0.445460295048377   0.500815931043711   1.0
H8   H   0.706590301371421   0.895908866860800   0.501231044362868   1.0
H9   H   0.288341957359357   0.397995433356456   0.657011816090503   1.0
N13   N   0.348730151378305   0.556983030230128   0.673669013275656   1.0
N14   N   0.573159445717245   0.846588551010100   0.570793548959813   1.0
