data_1
_audit_creation_method   'Generated by vasp2cif'
_cell_length_a    5.79036672702
_cell_length_b    4.24592104918
_cell_length_c    8.98645766239
_cell_angle_alpha    109.113263089
_cell_angle_beta    83.3011383234
_cell_angle_gamma    91.9386654576
_symmetry_space_group_name_H-M    'P 1'
loop_
_atom_site_label
_atom_site_type_symbol
_atom_site_fract_x
_atom_site_fract_y
_atom_site_fract_z
_atom_site_occupancy
C1   C   0.492122996760557   0.535417697776793   0.646348824578126   1.0
C2   C   0.474984628670889   0.310303684606140   0.481165559042722   1.0
H3   H   0.316919326241376   0.235138360148660   0.279352932547695   1.0
H4   H   0.207550330454112   0.564566637046902   0.444641943031286   1.0
H5   H   0.472899633257334   0.392231373981815   0.727991433454612   1.0
H6   H   0.663902468571834   0.650918201821582   0.652697571053906   1.0
H7   H   0.360779400398819   0.731320439155787   0.681816537106826   1.0
H8   H   0.617134400368165   0.892542509080528   0.309343703904013   1.0
H9   H   0.745465855638770   0.023627356128955   0.486093732059004   1.0
Cl10   Cl   0.459524150233271   0.803897505452454   0.039778100708510   1.0
Cl11   Cl   0.930039343039802   0.436736922652841   0.193089704576664   1.0
Cl12   Cl   0.988235941895731   0.094484144236880   0.698111231799068   1.0
N13   N   0.322208548833366   0.373213075468605   0.395644192771087   1.0
N14   N   0.616942361651873   0.049485322988346   0.422538122343965   1.0
