data_1
_audit_creation_method   'Generated by vasp2cif'
_cell_length_a    5.77798305518
_cell_length_b    5.68618716573
_cell_length_c    5.8234080502
_cell_angle_alpha    90.0253575048
_cell_angle_beta    91.9929436416
_cell_angle_gamma    89.8728232873
_symmetry_space_group_name_H-M    'P 1'
loop_
_atom_site_label
_atom_site_type_symbol
_atom_site_fract_x
_atom_site_fract_y
_atom_site_fract_z
_atom_site_occupancy
H4   H   0.541253024361936   0.500059361109635   0.260152115685791   1.0
H5   H   0.654045971541635   0.354575983434167   0.484718359977784   1.0
H6   H   0.649064463965608   0.649809892671286   0.484096164256037   1.0
H7   H   0.233117654984959   0.336821986430749   0.493127855732879   1.0
H8   H   0.352062256183899   0.498766067648219   0.733047535994167   1.0
H9   H   0.226460366173448   0.652749578828569   0.491036623869625   1.0
C10   C   0.322728606906459   0.496936501629285   0.547315088989457   1.0
N12   N   0.556175123123310   0.500652305135908   0.437069200551143   1.0
