data_1
_audit_creation_method   'Generated by vasp2cif'
_cell_length_a    5.76133357366
_cell_length_b    5.74663423444
_cell_length_c    5.82411873849
_cell_angle_alpha    86.7931046532
_cell_angle_beta    85.3274999073
_cell_angle_gamma    93.2145247049
_symmetry_space_group_name_H-M    'P 1'
loop_
_atom_site_label
_atom_site_type_symbol
_atom_site_fract_x
_atom_site_fract_y
_atom_site_fract_z
_atom_site_occupancy
Cl1   Cl   0.027212808214415   0.037579651060177   0.588684695606645   1.0
Cl2   Cl   0.491018772263061   0.979782937389011   0.126169901842580   1.0
Cl3   Cl   0.957590847287072   0.505130565150964   0.125026815669166   1.0
H4   H   0.298645764254772   0.346466471632830   0.475904184267470   1.0
H5   H   0.564275670839990   0.404745912283261   0.337059618828896   1.0
H6   H   0.383259068269027   0.617440887678072   0.361953373494430   1.0
H7   H   0.596417602326476   0.370791906119386   0.751183902820493   1.0
H8   H   0.679243625856678   0.660953670052223   0.633293850899946   1.0
H9   H   0.396537507688286   0.597596178774587   0.782618076604976   1.0
C10   C   0.535392834950301   0.529725168707458   0.671833342618889   1.0
N12   N   0.437588562961437   0.470274908298897   0.447153109556979   1.0
