data_1
_audit_creation_method   'Generated by vasp2cif'
_cell_length_a    5.82998519239
_cell_length_b    4.27452403635
_cell_length_c    7.52410154927
_cell_angle_alpha    98.0960706885
_cell_angle_beta    83.2399211413
_cell_angle_gamma    93.810919337
_symmetry_space_group_name_H-M    'P 1'
loop_
_atom_site_label
_atom_site_type_symbol
_atom_site_fract_x
_atom_site_fract_y
_atom_site_fract_z
_atom_site_occupancy
Cl1   Cl   0.019551327432761   0.617591952171499   0.733941917619787   1.0
Cl2   Cl   0.474585321781314   0.244277280475292   0.085908932837763   1.0
Cl3   Cl   0.953591768613782   0.747774609579510   0.282879058299526   1.0
H4   H   0.288806918241589   0.757693974565526   0.492722842198991   1.0
H5   H   0.561962878401207   0.711399406397503   0.389139870541731   1.0
H6   H   0.404212406028908   0.981181436997661   0.335351955660587   1.0
H7   H   0.570732638201971   0.978947208576938   0.697467121406574   1.0
H8   H   0.692233639917400   0.222670548377200   0.532866235825336   1.0
H9   H   0.402463843854956   0.276955594253073   0.640889587680070   1.0
C10   C   0.533812137257707   0.107074304324544   0.589636468413049   1.0
N12   N   0.439501474230400   0.872389582678798   0.443279242241497   1.0
