data_1
_audit_creation_method   'Generated by vasp2cif'
_cell_length_a    7.24367953037
_cell_length_b    4.5275988205
_cell_length_c    7.30373027015
_cell_angle_alpha    51.6634792369
_cell_angle_beta    98.8523700691
_cell_angle_gamma    104.319913028
_symmetry_space_group_name_H-M    'P 1'
loop_
_atom_site_label
_atom_site_type_symbol
_atom_site_fract_x
_atom_site_fract_y
_atom_site_fract_z
_atom_site_occupancy
Cl1   Cl   0.277272861042764   0.012386712337827   0.052274079277544   1.0
Cl2   Cl   0.920065968424901   0.850633588196487   0.552392447614060   1.0
Cl3   Cl   0.721444807428611   0.792403317870119   0.052258747590152   1.0
H4   H   0.626676441003575   0.492022977801494   0.551415296986815   1.0
H5   H   0.421159324746224   0.601179742604447   0.404470103341729   1.0
H6   H   0.422704097049095   0.303772128770975   0.701465787506407   1.0
H7   H   0.512660707839104   0.140985822003939   0.393065225835256   1.0
H8   H   0.517228961607039   0.826572976091689   0.707467599926710   1.0
H9   H   0.295865121728578   0.941439794977088   0.554999168328030   1.0
C10   C   0.449136679616781   0.043569764074728   0.551947750573526   1.0
N12   N   0.482166761433612   0.384632849853822   0.552380932243564   1.0
