data_1
_audit_creation_method   'Generated by vasp2cif'
_cell_length_a    5.88361512585
_cell_length_b    5.88453698049
_cell_length_c    5.88258314275
_cell_angle_alpha    97.6053747849
_cell_angle_beta    96.4462320853
_cell_angle_gamma    96.171698169
_symmetry_space_group_name_H-M    'P 1'
loop_
_atom_site_label
_atom_site_type_symbol
_atom_site_fract_x
_atom_site_fract_y
_atom_site_fract_z
_atom_site_occupancy
C1   C   0.302924214609916   0.292737577366864   0.338282597803129   1.0
H2   H   0.080023825176859   0.260490010586039   0.581328917844232   1.0
H3   H   0.074446088092216   0.533404719402192   0.318929777608325   1.0
H4   H   0.556855131782612   0.079781780159173   0.312784420047315   1.0
H5   H   0.553618898714547   0.279789388993002   0.121121411435027   1.0
H6   H   0.275210960655087   0.541991349439883   0.125446192835938   1.0
H7   H   0.285403802455221   0.070893325914732   0.580572013948299   1.0
N11   N   0.212976698132557   0.197443689111793   0.508050147880198   1.0
N12   N   0.208283530302964   0.465407402563976   0.252179811553944   1.0
N13   N   0.485131452164595   0.213154758417282   0.252528641365004   1.0
