data_1
_audit_creation_method   'Generated by vasp2cif'
_cell_length_a    5.83654217596
_cell_length_b    5.83303955724
_cell_length_c    5.85035840434
_cell_angle_alpha    86.7654493085
_cell_angle_beta    94.2718245257
_cell_angle_gamma    84.636524147
_symmetry_space_group_name_H-M    'P 1'
loop_
_atom_site_label
_atom_site_type_symbol
_atom_site_fract_x
_atom_site_fract_y
_atom_site_fract_z
_atom_site_occupancy
C1   C   0.755865936597260   0.284918507253195   0.634442920268874   1.0
H2   H   0.874124631336088   0.170887998197429   0.337461482459062   1.0
H3   H   0.025864354183319   0.462226489221166   0.543159959624276   1.0
H4   H   0.479139877458216   0.150587829194798   0.766149853121576   1.0
H5   H   0.597032399309512   0.361507263921538   0.925337524423526   1.0
H6   H   0.875754412447243   0.570723351352186   0.767440450776412   1.0
H7   H   0.672458316706738   0.006717380444236   0.456883972396490   1.0
Cl8   Cl   0.301541877809051   0.810966622543482   0.624564751927636   1.0
Cl9   Cl   0.223029732629008   0.288854590489890   0.177402520892151   1.0
Cl10   Cl   0.737276107161541   0.727110465647819   0.115319399496826   1.0
N11   N   0.766377289121543   0.143742283881387   0.462176092167354   1.0
N12   N   0.898920236093801   0.450756788975099   0.650558485078903   1.0
N13   N   0.603828506159651   0.258287303276262   0.792261623733772   1.0
