data_1
_audit_creation_method   'Generated by vasp2cif'
_cell_length_a    9.20468230548
_cell_length_b    4.09677505405
_cell_length_c    5.87454195238
_cell_angle_alpha    77.5954420263
_cell_angle_beta    96.0907876884
_cell_angle_gamma    116.426032691
_symmetry_space_group_name_H-M    'P 1'
loop_
_atom_site_label
_atom_site_type_symbol
_atom_site_fract_x
_atom_site_fract_y
_atom_site_fract_z
_atom_site_occupancy
C1   C   0.467668916728300   0.208447325686073   0.530166976386738   1.0
H2   H   0.367937404167357   0.359676306537715   0.764221650962483   1.0
H3   H   0.576614467113615   0.579061973397330   0.753672410798409   1.0
H4   H   0.608116956600483   0.129107096198894   0.315925080522952   1.0
H5   H   0.715132346724438   0.439283683534328   0.502172056412761   1.0
H6   H   0.219440473202447   0.929341622392826   0.519247769020197   1.0
H7   H   0.320018582531084   0.826078942083640   0.329973693180428   1.0
N11   N   0.470836927385669   0.399450091634712   0.690866215973216   1.0
N12   N   0.325481576094290   0.966809490253148   0.456117007602487   1.0
N13   N   0.606967482186072   0.257466665543241   0.445356810688921   1.0
