data_1
_audit_creation_method   'Generated by vasp2cif'
_cell_length_a    5.63462846535
_cell_length_b    5.63374992966
_cell_length_c    5.6264674172
_cell_angle_alpha    107.957580521
_cell_angle_beta    91.4834116191
_cell_angle_gamma    80.2469169269
_symmetry_space_group_name_H-M    'P 1'
loop_
_atom_site_label
_atom_site_type_symbol
_atom_site_fract_x
_atom_site_fract_y
_atom_site_fract_z
_atom_site_occupancy
Cl1   Cl   0.083133149113973   0.035770458232985   0.528700502335666   1.0
Cl2   Cl   0.545637304192632   0.983631197912274   0.993443764122649   1.0
Cl3   Cl   0.981430995295502   0.436470805193909   0.168439679299447   1.0
H4   H   0.345644411114527   0.480421830128260   0.334153951925011   1.0
H5   H   0.648703246216333   0.414180597833250   0.386992937091879   1.0
H6   H   0.486391796493552   0.700874550426871   0.540617068023680   1.0
H7   H   0.332130741941566   0.284276780398299   0.604740547142934   1.0
N9   N   0.481078143060339   0.509464076887493   0.465729994323918   1.0
