data_1
_audit_creation_method   'Generated by vasp2cif'
_cell_length_a    5.76395846484
_cell_length_b    4.32251981441
_cell_length_c    7.05936138508
_cell_angle_alpha    107.928678252
_cell_angle_beta    85.5599331656
_cell_angle_gamma    91.9734275942
_symmetry_space_group_name_H-M    'P 1'
loop_
_atom_site_label
_atom_site_type_symbol
_atom_site_fract_x
_atom_site_fract_y
_atom_site_fract_z
_atom_site_occupancy
H4   H   0.503841783764251   0.907298014892170   0.365472554398309   1.0
H5   H   0.648616931961563   0.944538923722817   0.574483875543379   1.0
H6   H   0.368831012113112   0.078650258208569   0.598305384364330   1.0
H7   H   0.258319113719722   0.550998837117163   0.447160675401015   1.0
N9   N   0.487300708623344   0.905334882501940   0.514043656563288   1.0
