data_1
_audit_creation_method   'Generated by vasp2cif'
_cell_length_a    7.00024992316
_cell_length_b    4.38198511652
_cell_length_c    5.71048659227
_cell_angle_alpha    91.5163348811
_cell_angle_beta    95.7820874876
_cell_angle_gamma    71.7329097389
_symmetry_space_group_name_H-M    'P 1'
loop_
_atom_site_label
_atom_site_type_symbol
_atom_site_fract_x
_atom_site_fract_y
_atom_site_fract_z
_atom_site_occupancy
Cl1   Cl   0.751141134100891   0.352449159565474   0.148835353238375   1.0
Cl2   Cl   0.114089735892101   0.700900940899402   0.603080841773100   1.0
Cl3   Cl   0.339803401416823   0.058232981867576   0.139671392724935   1.0
H4   H   0.420066661724732   0.358733331934175   0.600464821517448   1.0
H5   H   0.639898852923153   0.194647350201521   0.473720496568802   1.0
H6   H   0.646620551369899   0.331704324380361   0.757020604938511   1.0
H7   H   0.506743051789421   0.948400296008394   0.851977108438284   1.0
N9   N   0.572907007856507   0.222205801983684   0.630320401714627   1.0
