data_1
_audit_creation_method   'Generated by vasp2cif'
_cell_length_a    5.57925945463
_cell_length_b    4.18482559003
_cell_length_c    7.2193033713
_cell_angle_alpha    105.877991549
_cell_angle_beta    81.3330901642
_cell_angle_gamma    94.5083777202
_symmetry_space_group_name_H-M    'P 1'
loop_
_atom_site_label
_atom_site_type_symbol
_atom_site_fract_x
_atom_site_fract_y
_atom_site_fract_z
_atom_site_occupancy
H4   H   0.434059744227469   0.171328646190673   0.508218403259391   1.0
H5   H   0.541223752925220   0.973755432479756   0.654158002951092   1.0
H6   H   0.233173353993926   0.991711576812783   0.658426137813201   1.0
H7   H   0.244708232210520   0.596962302262163   0.394429216210263   1.0
N9   N   0.402683498126031   0.976416220984838   0.572166845549823   1.0
