data_1
_audit_creation_method   'Generated by vasp2cif'
_cell_length_a    7.10886395853
_cell_length_b    4.25423079704
_cell_length_c    5.60563046293
_cell_angle_alpha    85.4383024588
_cell_angle_beta    79.6984662517
_cell_angle_gamma    74.7172107677
_symmetry_space_group_name_H-M    'P 1'
loop_
_atom_site_label
_atom_site_type_symbol
_atom_site_fract_x
_atom_site_fract_y
_atom_site_fract_z
_atom_site_occupancy
H4   H   0.402406522021266   0.021239040410109   0.673540708721688   1.0
H5   H   0.570543785609935   0.226318333551618   0.530172789548566   1.0
H6   H   0.510453690685971   0.213655271384624   0.841933578600717   1.0
H7   H   0.690374785138765   0.714625750170619   0.856289160252231   1.0
N9   N   0.531066949106105   0.089866773790682   0.683990387229095   1.0
