data_1
_audit_creation_method   'Generated by vasp2cif'
_cell_length_a    5.69059267302
_cell_length_b    4.33097982519
_cell_length_c    6.88575996346
_cell_angle_alpha    106.381300675
_cell_angle_beta    86.789691515
_cell_angle_gamma    89.5096066355
_symmetry_space_group_name_H-M    'P 1'
loop_
_atom_site_label
_atom_site_type_symbol
_atom_site_fract_x
_atom_site_fract_y
_atom_site_fract_z
_atom_site_occupancy
Cl1   Cl   0.838959918354576   0.087022602328460   0.806105904659333   1.0
Cl2   Cl   0.321327374668314   0.639659424281952   0.952659413681374   1.0
Cl3   Cl   0.998278697772164   0.342326488631052   0.376548269056187   1.0
H4   H   0.239952824103113   0.120517914160445   0.551521534686557   1.0
H5   H   0.510879340904708   0.117156501018350   0.653475237793977   1.0
H6   H   0.295754104346976   0.895295343269666   0.715470789007199   1.0
H7   H   0.313658046913773   0.594007406429796   0.382534932970799   1.0
N9   N   0.364834790509320   0.985827622265070   0.599457581071988   1.0
