data_1
_audit_creation_method   'Generated by vasp2cif'
_cell_length_a    5.82314101282
_cell_length_b    5.81333707457
_cell_length_c    5.74551281986
_cell_angle_alpha    81.3174305729
_cell_angle_beta    83.8157061539
_cell_angle_gamma    86.2868188154
_symmetry_space_group_name_H-M    'P 1'
loop_
_atom_site_label
_atom_site_type_symbol
_atom_site_fract_x
_atom_site_fract_y
_atom_site_fract_z
_atom_site_occupancy
N5   N   0.085504302386148   0.742420464974714   0.858166464138662   1.0
N6   N   0.235074985077425   0.937776123863742   0.129125015885705   1.0
H7   H   0.216350417303005   0.617306144184226   0.862794011231969   1.0
H8   H   0.377717173504266   0.828278126474011   0.144904994446001   1.0
H9   H   0.961316773022638   0.737330385579668   0.747430209387304   1.0
H10   H   0.212766551921391   0.066368033088487   0.233433457910458   1.0
H11   H   0.930549288656195   0.036140691066223   0.981484858727413   1.0
C12   C   0.076961083992991   0.910885133807803   0.989020334421127   1.0
