data_1
_audit_creation_method   'Generated by vasp2cif'
_cell_length_a    6.18432046342
_cell_length_b    6.35385974961
_cell_length_c    6.15846191373
_cell_angle_alpha    89.5136491962
_cell_angle_beta    87.9221934157
_cell_angle_gamma    89.9015276391
_symmetry_space_group_name_H-M    'P 1'
loop_
_atom_site_label
_atom_site_type_symbol
_atom_site_fract_x
_atom_site_fract_y
_atom_site_fract_z
_atom_site_occupancy
C1   C   0.370335582957338   0.390275434470880   0.318108879153385   1.0
C2   C   0.642332001753161   0.570777185086882   0.535646644073708   1.0
C3   C   0.402685572582556   0.299348475381386   0.706181542722973   1.0
C4   C   0.253629338318163   0.646643981589939   0.596172152757163   1.0
H5   H   0.287388719122177   0.705706725314108   0.756838649295091   1.0
H6   H   0.092700296583288   0.577920557932195   0.595125739584397   1.0
H7   H   0.207300083276998   0.326503915696783   0.326351697792937   1.0
H8   H   0.670276751589057   0.632875125317504   0.696183137930511   1.0
H9   H   0.237885894482723   0.239772013783678   0.710440725810003   1.0
H10   H   0.444752109146670   0.362035740639819   0.862838264184916   1.0
H11   H   0.758196849208346   0.447089289927682   0.494123240885770   1.0
H12   H   0.271445788525376   0.771804724848089   0.475232640004087   1.0
H13   H   0.517239881146217   0.177466377150445   0.655724997223942   1.0
H14   H   0.382980314969068   0.518961994740472   0.200529395389630   1.0
H15   H   0.647468768866403   0.695756315190202   0.414445552085738   1.0
H16   H   0.487633585518935   0.267818223932046   0.279318913337086   1.0
Cl17   Cl   0.466497185958524   0.912790339211000   0.061849953726060   1.0
Cl18   Cl   0.908442213977814   0.037528570937496   0.504286445736803   1.0
Cl19   Cl   0.895611405455199   0.416491509714028   0.021175546992772   1.0
N20   N   0.417423350993438   0.476468755218349   0.539675817657496   1.0
