data_1
_audit_creation_method   'Generated by vasp2cif'
_cell_length_a    6.64034375956
_cell_length_b    5.01391600194
_cell_length_c    7.57296430405
_cell_angle_alpha    90.6299198164
_cell_angle_beta    90.2229155104
_cell_angle_gamma    85.4103737587
_symmetry_space_group_name_H-M    'P 1'
loop_
_atom_site_label
_atom_site_type_symbol
_atom_site_fract_x
_atom_site_fract_y
_atom_site_fract_z
_atom_site_occupancy
C1   C   0.436534023110596   0.366709934866194   0.464422781913491   1.0
C2   C   0.571417880170259   0.736959520594247   0.632729562631766   1.0
C3   C   0.358297354262184   0.428587391935089   0.785556860747874   1.0
C4   C   0.203178733200488   0.744001401909067   0.565988798290370   1.0
H5   H   0.228181504738288   0.839411500765969   0.440552007989183   1.0
H6   H   0.172097340369099   0.892502005054567   0.670209729478081   1.0
H7   H   0.455544519206562   0.475187707830166   0.342580263623781   1.0
H8   H   0.595590625149548   0.832188929210552   0.507026105508274   1.0
H9   H   0.231141676066301   0.307130827936959   0.768433577500545   1.0
H10   H   0.325213520757437   0.580961892237902   0.887386049847088   1.0
H11   H   0.538095406343537   0.884290038469700   0.737060605895806   1.0
H12   H   0.078560320803746   0.615808026929159   0.554331111712330   1.0
H13   H   0.495965992298721   0.308814071376737   0.820804027560435   1.0
H14   H   0.575887277192592   0.249366776550325   0.496605018831602   1.0
H15   H   0.702687545734207   0.603876578823780   0.668090275618482   1.0
H16   H   0.308666946121505   0.245969121406354   0.451579513604436   1.0
N20   N   0.392282667548734   0.569135793174098   0.612586146489178   1.0
