data_1
_audit_creation_method   'Generated by vasp2cif'
_cell_length_a    8.09008845132
_cell_length_b    5.56443945902
_cell_length_c    5.74311494876
_cell_angle_alpha    106.115008498
_cell_angle_beta    46.1655516451
_cell_angle_gamma    113.66514891
_symmetry_space_group_name_H-M    'P 1'
loop_
_atom_site_label
_atom_site_type_symbol
_atom_site_fract_x
_atom_site_fract_y
_atom_site_fract_z
_atom_site_occupancy
H4   H   0.403475051075823   0.624570634854948   0.198200938279420   1.0
H5   H   0.497433786438336   0.658581940628387   0.842368321415520   1.0
H6   H   0.674036935289735   0.432325805685615   0.993260395076497   1.0
H7   H   0.678740424360051   0.302235533359145   0.686961527539253   1.0
H8   H   0.827883349204868   0.623805333249152   0.681129154158526   1.0
N10   N   0.451333571959729   0.527508652110477   0.988511108266920   1.0
N11   N   0.672893298998638   0.469355227094596   0.826901057027264   1.0
