data_1
_audit_creation_method   'Generated by vasp2cif'
_cell_length_a    3.93297777655
_cell_length_b    5.8914282428
_cell_length_c    7.98689820731
_cell_angle_alpha    82.3660270674
_cell_angle_beta    108.108297397
_cell_angle_gamma    112.482161152
_symmetry_space_group_name_H-M    'P 1'
loop_
_atom_site_label
_atom_site_type_symbol
_atom_site_fract_x
_atom_site_fract_y
_atom_site_fract_z
_atom_site_occupancy
H4   H   0.335130413934365   0.475983193864607   0.521255769512763   1.0
H5   H   0.360367098358381   0.716934147798831   0.387208502651354   1.0
H6   H   0.666168061652854   0.461744764387369   0.327603782965099   1.0
H7   H   0.216592107411451   0.242498226557721   0.272442682206609   1.0
H8   H   0.315097704265710   0.511345725090216   0.158993119451210   1.0
N10   N   0.227785045771156   0.529895737718967   0.394420782698305   1.0
N11   N   0.370328945552949   0.429200063627292   0.282000026016895   1.0
