data_1
_audit_creation_method   'Generated by vasp2cif'
_cell_length_a    6.94135547568
_cell_length_b    5.68604650933
_cell_length_c    4.46517048257
_cell_angle_alpha    91.0388712965
_cell_angle_beta    72.3011391689
_cell_angle_gamma    87.8093178853
_symmetry_space_group_name_H-M    'P 1'
loop_
_atom_site_label
_atom_site_type_symbol
_atom_site_fract_x
_atom_site_fract_y
_atom_site_fract_z
_atom_site_occupancy
Cl1   Cl   0.470278086539210   0.111888222776635   0.375817848245390   1.0
Cl2   Cl   0.909237287276135   0.944103006839470   0.626235172315589   1.0
Cl3   Cl   0.049673874782656   0.441938878685583   0.070545811658846   1.0
H4   H   0.473598967780461   0.506086049582734   0.158894154349476   1.0
H5   H   0.622366021053310   0.734458325532472   0.054828476051064   1.0
H6   H   0.792446145768999   0.369524896310630   0.846120797033649   1.0
H7   H   0.620655940088753   0.336415853647601   0.648341506125774   1.0
H8   H   0.781135492194899   0.559352417127926   0.573761819781453   1.0
N10   N   0.542179111427735   0.612310593161084   0.976676917751405   1.0
N11   N   0.692985855797232   0.457532588362724   0.748658776641790   1.0
