data_1
_audit_creation_method   'Generated by vasp2cif'
_cell_length_a    7.4895425975
_cell_length_b    4.04011385901
_cell_length_c    5.93712787889
_cell_angle_alpha    91.0339933406
_cell_angle_beta    94.9531126286
_cell_angle_gamma    71.7866469485
_symmetry_space_group_name_H-M    'P 1'
loop_
_atom_site_label
_atom_site_type_symbol
_atom_site_fract_x
_atom_site_fract_y
_atom_site_fract_z
_atom_site_occupancy
H4   H   0.613382677567034   0.372100924251928   0.732900362973332   1.0
H5   H   0.444730097338807   0.457568460550293   0.523478821007352   1.0
H6   H   0.828437662678570   0.420336255233562   0.478941497413512   1.0
H7   H   0.652897615881669   0.529037929573054   0.274635711439322   1.0
H8   H   0.651037296005197   0.803421979668925   0.494735827090421   1.0
N10   N   0.586442165547845   0.337038611653603   0.563299635688476   1.0
N11   N   0.684500743527565   0.541336732759713   0.446934716243170   1.0
