data_1
_audit_creation_method   'Generated by vasp2cif'
_cell_length_a    7.72879725489
_cell_length_b    3.96091634755
_cell_length_c    5.69346338228
_cell_angle_alpha    88.8664090529
_cell_angle_beta    89.5336614548
_cell_angle_gamma    78.2445152513
_symmetry_space_group_name_H-M    'P 1'
loop_
_atom_site_label
_atom_site_type_symbol
_atom_site_fract_x
_atom_site_fract_y
_atom_site_fract_z
_atom_site_occupancy
H4   H   0.565674440488261   0.459262985619153   0.674621180805948   1.0
H5   H   0.589172340589783   0.463915377024041   0.386369499459776   1.0
H6   H   0.279393945346863   0.755744574036519   0.644020139817396   1.0
H7   H   0.414794688871414   0.987964263975481   0.506795067737517   1.0
H8   H   0.296466224324167   0.751456224979111   0.348344744103991   1.0
N10   N   0.501694788855663   0.441052149661896   0.519463492538057   1.0
N11   N   0.364788098091219   0.760842528625761   0.503398512084982   1.0
