data_1
_audit_creation_method   'Generated by vasp2cif'
_cell_length_a    5.84904788921
_cell_length_b    3.98029649434
_cell_length_c    7.66766172223
_cell_angle_alpha    101.335667713
_cell_angle_beta    93.7882046945
_cell_angle_gamma    68.4793097996
_symmetry_space_group_name_H-M    'P 1'
loop_
_atom_site_label
_atom_site_type_symbol
_atom_site_fract_x
_atom_site_fract_y
_atom_site_fract_z
_atom_site_occupancy
H4   H   0.507096791826910   0.900172540732541   0.364878231302448   1.0
H5   H   0.258469002922773   0.111279494635809   0.495385640092721   1.0
H6   H   0.747146272713245   0.086047073351750   0.569880200352237   1.0
H7   H   0.502813624326421   0.471336884121904   0.554816600708122   1.0
H8   H   0.528197237573039   0.248633639335395   0.727413622813266   1.0
N10   N   0.443378482087169   0.962160313129672   0.493280144938296   1.0
N11   N   0.560135393743131   0.212939206101737   0.592179112094485   1.0
