data_1
_audit_creation_method   'Generated by vasp2cif'
_cell_length_a    7.49299350703
_cell_length_b    4.04120892833
_cell_length_c    5.93631362074
_cell_angle_alpha    91.2049543903
_cell_angle_beta    95.1097852645
_cell_angle_gamma    71.7366367382
_symmetry_space_group_name_H-M    'P 1'
loop_
_atom_site_label
_atom_site_type_symbol
_atom_site_fract_x
_atom_site_fract_y
_atom_site_fract_z
_atom_site_occupancy
H4   H   0.326960896682433   0.043851814194693   0.527503762806213   1.0
H5   H   0.497632623218217   0.958658139723098   0.734756253985315   1.0
H6   H   0.709442793159548   0.006177765255557   0.476230784630376   1.0
H7   H   0.530519935876824   0.117002751502952   0.275372431624412   1.0
H8   H   0.532778129113113   0.389626539440489   0.496142254273638   1.0
N10   N   0.468946928824303   0.923440876301524   0.565365179133459   1.0
N11   N   0.565227889526101   0.128033647171531   0.447240112341418   1.0
