data_1
_audit_creation_method   'Generated by vasp2cif'
_cell_length_a    5.69128426141
_cell_length_b    5.69149436737
_cell_length_c    5.7031943208
_cell_angle_alpha    83.6452843051
_cell_angle_beta    84.0075399457
_cell_angle_gamma    83.8745341544
_symmetry_space_group_name_H-M    'P 1'
loop_
_atom_site_label
_atom_site_type_symbol
_atom_site_fract_x
_atom_site_fract_y
_atom_site_fract_z
_atom_site_occupancy
N5   N   0.530975613700818   0.531872182927906   0.584065394194923   1.0
H6   H   0.371679108280240   0.631916632032869   0.552310492770339   1.0
H7   H   0.498216795961476   0.374705482020673   0.687847236824005   1.0
H8   H   0.626304324373429   0.494714059515971   0.424647521585307   1.0
H9   H   0.630112307885987   0.628077375060975   0.672875292838725   1.0
