data_1
_audit_creation_method   'Generated by vasp2cif'
_cell_length_a    7.28878514461
_cell_length_b    5.64511322339
_cell_length_c    4.2295442824
_cell_angle_alpha    111.919661967
_cell_angle_beta    106.818928417
_cell_angle_gamma    77.7184255165
_symmetry_space_group_name_H-M    'P 1'
loop_
_atom_site_label
_atom_site_type_symbol
_atom_site_fract_x
_atom_site_fract_y
_atom_site_fract_z
_atom_site_occupancy
N5   N   0.604699189014241   0.505128423262036   0.223685956357563   1.0
H6   H   0.754105823529187   0.477939584312807   0.287636371932578   1.0
H7   H   0.550950080266972   0.328823597428837   0.102413704607002   1.0
H8   H   0.554851807158869   0.608480999781740   0.448516743050860   1.0
H9   H   0.557983962473401   0.616146558308635   0.061656954226585   1.0
