data_1
_audit_creation_method   'Generated by vasp2cif'
_cell_length_a    5.88294578485
_cell_length_b    6.08585132826
_cell_length_c    6.24067990146
_cell_angle_alpha    86.9446372858
_cell_angle_beta    88.7316351407
_cell_angle_gamma    98.8265176513
_symmetry_space_group_name_H-M    'P 1'
loop_
_atom_site_label
_atom_site_type_symbol
_atom_site_fract_x
_atom_site_fract_y
_atom_site_fract_z
_atom_site_occupancy
C1   C   0.656484734197157   0.325390321408122   0.538776407424763   1.0
C2   C   0.426490654955984   0.586015649087720   0.711419280856397   1.0
C3   C   0.372849995203097   0.508451013764024   0.330626425135925   1.0
H4   H   0.781103193948319   0.353979210649371   0.664357852116446   1.0
H5   H   0.551730608996600   0.604414515230197   0.836916946888749   1.0
H6   H   0.460367190905117   0.470635553120339   0.185121865351249   1.0
H7   H   0.305775199320429   0.664129950831637   0.309642210007880   1.0
H8   H   0.356196564619417   0.739362469442760   0.679496731566552   1.0
H9   H   0.673546094759793   0.663147721942288   0.467542022573674   1.0
H10   H   0.236098906512133   0.372419536817389   0.381142129816297   1.0
H11   H   0.523718288735523   0.184627235071325   0.585745748527870   1.0
H12   H   0.287706497677320   0.449896372458134   0.754916250695587   1.0
H13   H   0.739465947198028   0.300039394980331   0.387300070309500   1.0
N17   N   0.543449257802607   0.531089231969204   0.508090618840889   1.0
