data_1
_audit_creation_method   'Generated by vasp2cif'
_cell_length_a    5.9761013341
_cell_length_b    6.02780442241
_cell_length_c    6.13208948391
_cell_angle_alpha    95.7086599785
_cell_angle_beta    86.3956752015
_cell_angle_gamma    84.0396129383
_symmetry_space_group_name_H-M    'P 1'
loop_
_atom_site_label
_atom_site_type_symbol
_atom_site_fract_x
_atom_site_fract_y
_atom_site_fract_z
_atom_site_occupancy
C1   C   0.334855542459167   0.328036872293239   0.474934935301526   1.0
C2   C   0.552487303424812   0.616771161466168   0.322330293758519   1.0
C3   C   0.659648977198557   0.460568272180879   0.666101752281435   1.0
H4   H   0.184159327298104   0.389454415099586   0.398609094565579   1.0
H5   H   0.411711702320929   0.649782826326700   0.222677560178838   1.0
H6   H   0.588240948750880   0.421350838364752   0.823469470289965   1.0
H7   H   0.758277920801149   0.601101754753586   0.686609015758911   1.0
H8   H   0.627440206384584   0.769378101817203   0.371447734210633   1.0
H9   H   0.359713948718088   0.649794357885106   0.616454148372988   1.0
H10   H   0.761339986168444   0.313307891703389   0.580064949126601   1.0
H11   H   0.439998208661244   0.203371170591623   0.361164460359255   1.0
H12   H   0.680416174276402   0.492504079383529   0.233885986340461   1.0
H13   H   0.292137132726935   0.260007316232006   0.626998519981143   1.0
Cl14   Cl   0.490033626581010   0.985987107608196   0.939241207793792   1.0
Cl15   Cl   0.075413006362190   0.521536461608143   0.990847416318928   1.0
Cl16   Cl   0.022423252059163   0.915131909070489   0.531253828791229   1.0
N17   N   0.467935112161889   0.523690262801146   0.527552224843070   1.0
