data_1
_audit_creation_method   'Generated by vasp2cif'
_cell_length_a    5.87215667045
_cell_length_b    6.24483485802
_cell_length_c    6.11101843843
_cell_angle_alpha    91.9416195405
_cell_angle_beta    80.0275915284
_cell_angle_gamma    89.0252728251
_symmetry_space_group_name_H-M    'P 1'
loop_
_atom_site_label
_atom_site_type_symbol
_atom_site_fract_x
_atom_site_fract_y
_atom_site_fract_z
_atom_site_occupancy
C1   C   0.356286449934416   0.588033252960550   0.316768760137876   1.0
C2   C   0.619053215762598   0.795066223553562   0.521191010867092   1.0
C3   C   0.577504125758068   0.408468369437983   0.577899017799680   1.0
H4   H   0.265943364749916   0.737050608103715   0.296973753371873   1.0
H5   H   0.768872018781245   0.753332361191617   0.394107271614565   1.0
H6   H   0.457904789379015   0.277306498017879   0.583862703176585   1.0
H7   H   0.635462243003865   0.432909452386383   0.736406630086051   1.0
H8   H   0.531434118201972   0.938496052402492   0.479019307087391   1.0
H9   H   0.317253111559268   0.639901854933733   0.657730274174156   1.0
H10   H   0.725983167706737   0.379340319088719   0.445911927617303   1.0
H11   H   0.498750847268731   0.557621017182996   0.178581737033220   1.0
H12   H   0.669320737104009   0.814108936344169   0.683272748952376   1.0
H13   H   0.239236199230497   0.454317998866316   0.333054804082828   1.0
N17   N   0.455381005254715   0.610800550810765   0.528403659914247   1.0
