data_1
_audit_creation_method   'Generated by vasp2cif'
_cell_length_a    5.74213638354
_cell_length_b    4.44911537562
_cell_length_c    8.87599960901
_cell_angle_alpha    93.9866649061
_cell_angle_beta    86.2295596775
_cell_angle_gamma    85.7417996717
_symmetry_space_group_name_H-M    'P 1'
loop_
_atom_site_label
_atom_site_type_symbol
_atom_site_fract_x
_atom_site_fract_y
_atom_site_fract_z
_atom_site_occupancy
C1   C   0.281935245963436   0.567437758141072   0.494650531179823   1.0
C2   C   0.641852994334299   0.842998382515299   0.476271910381319   1.0
C3   C   0.565119155066448   0.557149344768509   0.701849566403080   1.0
H4   H   0.190373293347149   0.728446604772708   0.427778916420499   1.0
H5   H   0.560700708057919   0.980069778786807   0.394422626712251   1.0
H6   H   0.430392075581633   0.450323545298721   0.766062964293139   1.0
H7   H   0.649413361371459   0.713230608583159   0.776535360282623   1.0
H8   H   0.761146536909640   0.966982396349475   0.542488976134574   1.0
H9   H   0.356241470488366   0.918122997356605   0.641986725958609   1.0
H10   H   0.695270356387658   0.389242354557676   0.645632456616824   1.0
H11   H   0.378854941028497   0.393076731341732   0.418604021978578   1.0
H12   H   0.734782063004944   0.642564412733295   0.416370130037721   1.0
H13   H   0.160682124769204   0.471717703701886   0.574242489727404   1.0
N17   N   0.454261118934956   0.736585198676340   0.582969584153605   1.0
