data_1
_audit_creation_method   'Generated by vasp2cif'
_cell_length_a    6.30249753943
_cell_length_b    4.6241751519
_cell_length_c    7.86897926627
_cell_angle_alpha    90.6384886836
_cell_angle_beta    93.3633936383
_cell_angle_gamma    74.688384824
_symmetry_space_group_name_H-M    'P 1'
loop_
_atom_site_label
_atom_site_type_symbol
_atom_site_fract_x
_atom_site_fract_y
_atom_site_fract_z
_atom_site_occupancy
C1   C   0.536457922093582   0.869597761427038   0.399956049703143   1.0
C2   C   0.440565326342920   0.908960502141198   0.704672617445453   1.0
C3   C   0.260774158720793   0.621145678500156   0.502330699245000   1.0
H4   H   0.609758993600138   0.055355555948338   0.424343805299053   1.0
H5   H   0.304724940021273   0.937075653430981   0.786841435158877   1.0
H6   H   0.222006767746734   0.590724508710124   0.368138897562481   1.0
H7   H   0.114332842415642   0.660563835442517   0.575504045294515   1.0
H8   H   0.564941397182878   0.699684721745442   0.732624923991281   1.0
H9   H   0.227073314099179   0.071395111570219   0.490438574650689   1.0
H10   H   0.388048812371338   0.430246701895328   0.552760338319530   1.0
H11   H   0.660481890450491   0.657026819658121   0.422846957150846   1.0
H12   H   0.513180427492038   0.097066355934167   0.717184635740530   1.0
H13   H   0.463510650207674   0.880459510387240   0.270403028807479   1.0
N17   N   0.356208723062402   0.886878818581870   0.522190162651945   1.0
