data_1
_audit_creation_method   'Generated by vasp2cif'
_cell_length_a    5.93832500323
_cell_length_b    5.97266858686
_cell_length_c    5.89455869391
_cell_angle_alpha    94.0236859561
_cell_angle_beta    91.2100328278
_cell_angle_gamma    95.6960754137
_symmetry_space_group_name_H-M    'P 1'
loop_
_atom_site_label
_atom_site_type_symbol
_atom_site_fract_x
_atom_site_fract_y
_atom_site_fract_z
_atom_site_occupancy
H4   H   0.427599674668463   0.489690773428287   0.177572100961906   1.0
H5   H   0.831165412334955   0.593298668674434   0.463952975078601   1.0
H6   H   0.535486966690976   0.750324792200469   0.265246894897957   1.0
H7   H   0.478293258860004   0.362565141549819   0.756501378165835   1.0
H8   H   0.279007409462780   0.759238147623897   0.559155845340741   1.0
H9   H   0.187001250410894   0.467503663668626   0.486354041829338   1.0
H10   H   0.682727853521146   0.319261663207281   0.400378327858813   1.0
H11   H   0.590076722291562   0.650014079366492   0.801382068046072   1.0
C12   C   0.331836837258733   0.591930756509758   0.522225512333592   1.0
C13   C   0.669340815430958   0.491925702420915   0.463779968933191   1.0
C14   C   0.521504068563136   0.518068206048671   0.674876167307028   1.0
N16   N   0.490593043721769   0.591082454366724   0.317055589627380   1.0
