data_1
_audit_creation_method   'Generated by vasp2cif'
_cell_length_a    5.9174987202
_cell_length_b    5.9217924316
_cell_length_c    5.94697911671
_cell_angle_alpha    86.6269437632
_cell_angle_beta    83.4517840928
_cell_angle_gamma    93.8211082574
_symmetry_space_group_name_H-M    'P 1'
loop_
_atom_site_label
_atom_site_type_symbol
_atom_site_fract_x
_atom_site_fract_y
_atom_site_fract_z
_atom_site_occupancy
Cl1   Cl   0.008557036060161   0.055867809216451   0.525925848286185   1.0
Cl2   Cl   0.534319159676727   0.058528368672867   0.046907917050625   1.0
Cl3   Cl   0.056632130656482   0.577267087570448   0.010060125305330   1.0
H4   H   0.363749737234791   0.810977169146938   0.715219281288270   1.0
H5   H   0.395277642771369   0.657330130067862   0.264454631936111   1.0
H6   H   0.577061774548802   0.891110053669223   0.509882347053740   1.0
H7   H   0.481184056296904   0.246592595687964   0.560295002333376   1.0
H8   H   0.802804036963821   0.631366910561709   0.674133524044649   1.0
H9   H   0.556582665553478   0.513419685113028   0.856426810617521   1.0
H10   H   0.204185331941723   0.535758001062817   0.502160801520617   1.0
H11   H   0.691722536645827   0.402382579330059   0.362190476206344   1.0
C12   C   0.625317074391553   0.569558659447154   0.683324742507516   1.0
C13   C   0.380988168586612   0.585201880942449   0.437486104431329   1.0
C14   C   0.555088153389420   0.414780161678088   0.498606747535220   1.0
N16   N   0.480294770618542   0.754848233502273   0.594331981529763   1.0
