data_1
_audit_creation_method   'Generated by vasp2cif'
_cell_length_a    8.24218013575
_cell_length_b    5.81193723786
_cell_length_c    4.62836566745
_cell_angle_alpha    90.3175832366
_cell_angle_beta    84.2213742989
_cell_angle_gamma    89.8825603294
_symmetry_space_group_name_H-M    'P 1'
loop_
_atom_site_label
_atom_site_type_symbol
_atom_site_fract_x
_atom_site_fract_y
_atom_site_fract_z
_atom_site_occupancy
H4   H   0.602295929963840   0.003676163967932   0.082649482986906   1.0
H5   H   0.321667314221713   0.301439076277457   0.007157025832492   1.0
H6   H   0.323695397226838   0.010267932040515   0.005579004478671   1.0
H7   H   0.383658955228335   0.000979716093044   0.505316093310494   1.0
H8   H   0.378570065965955   0.309661366043139   0.507068520479503   1.0
H9   H   0.675575575604595   0.317403873494749   0.561663688216982   1.0
H10   H   0.681418678445737   0.012804524066732   0.555137728056243   1.0
H11   H   0.599179400545497   0.313745231769800   0.088985705223892   1.0
C12   C   0.428939168801898   0.157024407667638   0.600526437309661   1.0
C13   C   0.568720362747094   0.159090974966462   0.973424491291853   1.0
C14   C   0.613267402126380   0.162312207816460   0.642036491056110   1.0
N16   N   0.385040759223696   0.156377389517528   0.930166920249073   1.0
