data_1
_audit_creation_method   'Generated by vasp2cif'
_cell_length_a    8.07984615939
_cell_length_b    5.78818611258
_cell_length_c    4.61304928035
_cell_angle_alpha    94.0689355618
_cell_angle_beta    84.0504589842
_cell_angle_gamma    86.7198044868
_symmetry_space_group_name_H-M    'P 1'
loop_
_atom_site_label
_atom_site_type_symbol
_atom_site_fract_x
_atom_site_fract_y
_atom_site_fract_z
_atom_site_occupancy
H4   H   0.408019369984473   0.980215446312734   0.927662216334141   1.0
H5   H   0.604625266736143   0.377189752456523   0.029181102917022   1.0
H6   H   0.670991037708220   0.096676583749037   0.036342921135081   1.0
H7   H   0.644257939061418   0.148719655717784   0.541481557879628   1.0
H8   H   0.509389493486601   0.405827049786311   0.533182309048044   1.0
H9   H   0.269070648950446   0.150951677689172   0.534360569694336   1.0
H10   H   0.408613260427714   0.900525435392979   0.441914805502229   1.0
H11   H   0.319210385144359   0.270933622252869   0.026475561590608   1.0
C12   C   0.539140489740973   0.226578630133830   0.445823714715289   1.0
C13   C   0.401978450762044   0.130473625505942   0.083166533314895   1.0
C14   C   0.385166037132983   0.083727637605307   0.408723333729249   1.0
N16   N   0.576811153831144   0.220861903976157   0.112383492527016   1.0
