data_1
_audit_creation_method   'Generated by vasp2cif'
_cell_length_a    5.81753542599
_cell_length_b    4.22173268601
_cell_length_c    8.484932417
_cell_angle_alpha    85.4003081689
_cell_angle_beta    90.1948006408
_cell_angle_gamma    91.0880343884
_symmetry_space_group_name_H-M    'P 1'
loop_
_atom_site_label
_atom_site_type_symbol
_atom_site_fract_x
_atom_site_fract_y
_atom_site_fract_z
_atom_site_occupancy
H4   H   0.046201146744654   0.135749710550310   0.488485696867568   1.0
H5   H   0.339865662374876   0.345374672920457   0.317892423274310   1.0
H6   H   0.353994130533938   0.678703625203327   0.407009331040128   1.0
H7   H   0.627555647547008   0.114678297228636   0.481776157583116   1.0
H8   H   0.646169799054184   0.471453114220856   0.581351505620877   1.0
H9   H   0.350887386192181   0.265480991560013   0.772809222240169   1.0
H10   H   0.334560647926672   0.903237620787073   0.683824358704419   1.0
H11   H   0.056977807301020   0.493675943880700   0.587687929931361   1.0
C12   C   0.531439175139156   0.288560560979797   0.541421353814646   1.0
C13   C   0.156844021174151   0.302939753820684   0.545601668935216   1.0
C14   C   0.343174641695046   0.160531597751185   0.659658455044434   1.0
N16   N   0.345441746128969   0.436694624385232   0.428396846932793   1.0
