data_1
_audit_creation_method   'Generated by vasp2cif'
_cell_length_a    5.76774417062
_cell_length_b    4.17298422245
_cell_length_c    8.59945878747
_cell_angle_alpha    88.7639066044
_cell_angle_beta    90.3463538083
_cell_angle_gamma    85.5239820497
_symmetry_space_group_name_H-M    'P 1'
loop_
_atom_site_label
_atom_site_type_symbol
_atom_site_fract_x
_atom_site_fract_y
_atom_site_fract_z
_atom_site_occupancy
H4   H   0.212561119182599   0.989696969388845   0.515982312260085   1.0
H5   H   0.427157615986900   0.233350773928727   0.311658987705602   1.0
H6   H   0.310558065128660   0.589940312301556   0.358294867333676   1.0
H7   H   0.726686351784550   0.235362787751525   0.502153765426747   1.0
H8   H   0.642166509614698   0.650958472283275   0.527437341772730   1.0
H9   H   0.362943560142068   0.509076419338796   0.735036826301664   1.0
H10   H   0.487024610270899   0.106551940773042   0.731081957027580   1.0
H11   H   0.069455252233296   0.377508318328592   0.541349754293341   1.0
C12   C   0.583001076743976   0.410516473977295   0.527486362993666   1.0
C13   C   0.236928081175284   0.240803313040428   0.536043387563071   1.0
C14   C   0.420638948579404   0.312076243511334   0.659766660354941   1.0
N16   N   0.387593292326658   0.378695131956335   0.405953006019669   1.0
