data_1
_audit_creation_method   'Generated by vasp2cif'
_cell_length_a    4.17462012028
_cell_length_b    5.71624211597
_cell_length_c    8.62312080158
_cell_angle_alpha    91.3637078668
_cell_angle_beta    89.6777505463
_cell_angle_gamma    94.367356945
_symmetry_space_group_name_H-M    'P 1'
loop_
_atom_site_label
_atom_site_type_symbol
_atom_site_fract_x
_atom_site_fract_y
_atom_site_fract_z
_atom_site_occupancy
H4   H   0.822647197418114   0.009077595458187   0.178678808828799   1.0
H5   H   0.983294983320761   0.810129079114049   0.475918068004454   1.0
H6   H   0.632828554720078   0.777666730430703   0.382946679792305   1.0
H7   H   0.445014284387831   0.087089758300507   0.541597770148257   1.0
H8   H   0.838797343101973   0.140760915497786   0.616494923576560   1.0
H9   H   0.977517387082024   0.415090273015686   0.405375052706759   1.0
H10   H   0.599232934926810   0.344995538696551   0.314869762417921   1.0
H11   H   0.193889051837395   0.068610445243443   0.275592304089514   1.0
C12   C   0.697806867892702   0.113273900130501   0.511090796918928   1.0
C13   C   0.934815238694377   0.064686177685161   0.287881341575655   1.0
C14   C   0.797626997539489   0.274428994475365   0.374954159731082   1.0
N16   N   0.813979981243421   0.898580956379540   0.418860429651012   1.0
