data_1
_audit_creation_method   'Generated by vasp2cif'
_cell_length_a    5.91007026385
_cell_length_b    6.1234636516
_cell_length_c    5.90895254409
_cell_angle_alpha    96.7801578511
_cell_angle_beta    80.6591692971
_cell_angle_gamma    83.5150699985
_symmetry_space_group_name_H-M    'P 1'
loop_
_atom_site_label
_atom_site_type_symbol
_atom_site_fract_x
_atom_site_fract_y
_atom_site_fract_z
_atom_site_occupancy
H4   H   0.396988402842667   0.037861771568641   0.324049796662728   1.0
H5   H   0.649558327778068   0.988394688462863   0.631537879005124   1.0
H6   H   0.781730383331175   0.581015706237679   0.360088912312859   1.0
H7   H   0.459062276144696   0.386447524994107   0.135105671428841   1.0
H8   H   0.873710353378018   0.314976953657548   0.651478707682404   1.0
C9   C   0.545761870939753   0.338095783131036   0.270829325015138   1.0
C10   C   0.640733676327187   0.120883507028169   0.527419087906994   1.0
C11   C   0.702685919134431   0.433627370722141   0.382208300596222   1.0
N13   N   0.509826330714381   0.145041800524704   0.364783054659884   1.0
N14   N   0.759114418196828   0.294870241323556   0.540671340572486   1.0
