data_1
_audit_creation_method   'Generated by vasp2cif'
_cell_length_a    5.9355169532
_cell_length_b    5.91791598278
_cell_length_c    6.07975044707
_cell_angle_alpha    97.094872549
_cell_angle_beta    97.1518229856
_cell_angle_gamma    98.0525377249
_symmetry_space_group_name_H-M    'P 1'
loop_
_atom_site_label
_atom_site_type_symbol
_atom_site_fract_x
_atom_site_fract_y
_atom_site_fract_z
_atom_site_occupancy
Cl1   Cl   0.937005659255828   0.861206258029687   0.472811156325249   1.0
Cl2   Cl   0.479452215126383   0.837226022541915   0.952616256996967   1.0
Cl3   Cl   0.933969372447102   0.398359207945877   0.906213305029696   1.0
H4   H   0.182874763542507   0.444567223304985   0.652048081323685   1.0
H5   H   0.423130876229017   0.127603025606168   0.716256923532537   1.0
H6   H   0.605631013837561   0.402314347233914   0.139752629872160   1.0
H7   H   0.276796910307888   0.638053748218243   0.311937309140606   1.0
H8   H   0.671610010722329   0.104742547298458   0.407848891804430   1.0
C9   C   0.354701986902798   0.497374336548400   0.364716118180775   1.0
C10   C   0.425466480700286   0.232792552513397   0.584052750753354   1.0
C11   C   0.515706054544421   0.381527767904511   0.280524635612090   1.0
N13   N   0.300646130639551   0.400746477623195   0.551836842032010   1.0
N14   N   0.556581477428077   0.217903025717510   0.420115964948452   1.0
