data_1
_audit_creation_method   'Generated by vasp2cif'
_cell_length_a    9.90531536612
_cell_length_b    4.05153894621
_cell_length_c    5.66326720974
_cell_angle_alpha    79.3447042579
_cell_angle_beta    86.8660925246
_cell_angle_gamma    67.8187958832
_symmetry_space_group_name_H-M    'P 1'
loop_
_atom_site_label
_atom_site_type_symbol
_atom_site_fract_x
_atom_site_fract_y
_atom_site_fract_z
_atom_site_occupancy
H4   H   0.725949011853070   0.749636707154359   0.574790079147408   1.0
H5   H   0.365362115544416   0.807171327042236   0.222389134837237   1.0
H6   H   0.262698210509360   0.199303317973650   0.546900681026783   1.0
H7   H   0.507132887052098   0.149617084270514   0.793618557110972   1.0
H8   H   0.643511127908823   0.532151227090033   0.233315788930245   1.0
C9   C   0.377217474754651   0.055215506355640   0.522903734228771   1.0
C10   C   0.497202665377669   0.030786748380011   0.643916521740472   1.0
C11   C   0.574860074494123   0.707629892609108   0.349868430965434   1.0
N13   N   0.428419254923682   0.852245985241690   0.341373411318538   1.0
N14   N   0.618576491114534   0.814662590385619   0.532287798870768   1.0
