data_1
_audit_creation_method   'Generated by vasp2cif'
_cell_length_a    5.83205730776
_cell_length_b    4.11859755182
_cell_length_c    9.5932709251
_cell_angle_alpha    112.347539088
_cell_angle_beta    95.4600678867
_cell_angle_gamma    82.0134925778
_symmetry_space_group_name_H-M    'P 1'
loop_
_atom_site_label
_atom_site_type_symbol
_atom_site_fract_x
_atom_site_fract_y
_atom_site_fract_z
_atom_site_occupancy
H4   H   0.570531233384315   0.185278723309537   0.265860094588994   1.0
H5   H   0.243830956558654   0.392794393148819   0.653011819385064   1.0
H6   H   0.558952104423454   0.814299547844200   0.734417189828328   1.0
H7   H   0.793091481855058   0.662216737158097   0.472293104170426   1.0
H8   H   0.243570796203102   0.019213310978209   0.372249214633598   1.0
C9   C   0.533584874136949   0.629484241373547   0.621113806367596   1.0
C10   C   0.647270055034433   0.555535906466375   0.492600660221520   1.0
C11   C   0.359779234022540   0.213276891875829   0.434126564532249   1.0
N13   N   0.356383794165858   0.413532065397405   0.581792364271955   1.0
N14   N   0.535424018461924   0.296306346459879   0.377859082891732   1.0
