data_1
_audit_creation_method   'Generated by vasp2cif'
_cell_length_a    6.14193405016
_cell_length_b    6.07805146311
_cell_length_c    6.28223508398
_cell_angle_alpha    82.4136937067
_cell_angle_beta    88.6293340643
_cell_angle_gamma    93.9667920757
_symmetry_space_group_name_H-M    'P 1'
loop_
_atom_site_label
_atom_site_type_symbol
_atom_site_fract_x
_atom_site_fract_y
_atom_site_fract_z
_atom_site_occupancy
C1   C   0.466221481246362   0.581116790005401   0.337166783746932   1.0
C2   C   0.545981148595193   0.410106976170572   0.202944487343194   1.0
H3   H   0.721370059643397   0.438367365124800   0.164681274993983   1.0
H4   H   0.458883963430176   0.422542147261912   0.053024321261143   1.0
H5   H   0.575696122797787   0.413531598033210   0.629645544861035   1.0
H6   H   0.537565016582337   0.683506074773993   0.640973396221697   1.0
H7   H   0.512695906065810   0.240768715424413   0.286213662459992   1.0
H8   H   0.494393171712590   0.751453326093076   0.256133702836750   1.0
H9   H   0.293726987456801   0.549811462423223   0.384911905575557   1.0
H10   H   0.755925019648378   0.614722978296031   0.511263042915378   1.0
N14   N   0.591649173584187   0.571823500803137   0.543933132706955   1.0
