data_1
_audit_creation_method   'Generated by vasp2cif'
_cell_length_a    6.23355545263
_cell_length_b    6.01597721419
_cell_length_c    6.26432557401
_cell_angle_alpha    85.9202529661
_cell_angle_beta    81.4726080367
_cell_angle_gamma    87.4177072912
_symmetry_space_group_name_H-M    'P 1'
loop_
_atom_site_label
_atom_site_type_symbol
_atom_site_fract_x
_atom_site_fract_y
_atom_site_fract_z
_atom_site_occupancy
C1   C   0.568836849305253   0.777378052324971   0.304582685030880   1.0
C2   C   0.546215379351319   0.591610118995746   0.158074074694384   1.0
H3   H   0.704776034744987   0.534910261114166   0.077446163854091   1.0
H4   H   0.447957736969405   0.653597902406800   0.034463636404634   1.0
H5   H   0.631452559255414   0.554206934140264   0.570754132839327   1.0
H6   H   0.708093237111148   0.815694274268487   0.587919931612889   1.0
H7   H   0.464680838873761   0.448969201461139   0.248423070345925   1.0
H8   H   0.655028295413448   0.919014081864623   0.219419852065641   1.0
H9   H   0.412443894591479   0.837124489614942   0.386219250048456   1.0
H10   H   0.856386741972962   0.644653655174910   0.420833838969305   1.0
N14   N   0.700008697721920   0.692198178250314   0.482649497594676   1.0
