data_1
_audit_creation_method   'Generated by vasp2cif'
_cell_length_a    8.559929804
_cell_length_b    4.39862713409
_cell_length_c    6.15642652867
_cell_angle_alpha    82.5056414473
_cell_angle_beta    92.7681153766
_cell_angle_gamma    87.8464974319
_symmetry_space_group_name_H-M    'P 1'
loop_
_atom_site_label
_atom_site_type_symbol
_atom_site_fract_x
_atom_site_fract_y
_atom_site_fract_z
_atom_site_occupancy
C1   C   0.467428219401967   0.549124253447090   0.413799361297578   1.0
C2   C   0.409258294950384   0.702261216385594   0.604899966098976   1.0
H3   H   0.385432334655121   0.531569848776151   0.743596112945639   1.0
H4   H   0.495150667857132   0.854699321174316   0.664109888217119   1.0
H5   H   0.630141437026303   0.250970624002520   0.624137307207469   1.0
H6   H   0.714733654854406   0.544026886557219   0.489475570676412   1.0
H7   H   0.389057884668666   0.374350306836547   0.369190478006992   1.0
H8   H   0.300549593674234   0.835666661742053   0.553141796954542   1.0
H9   H   0.481974188939937   0.712130010734448   0.267367012418951   1.0
H10   H   0.659932830933769   0.258667192310042   0.353346170273518   1.0
N14   N   0.627215446959006   0.388656661207214   0.474052590668982   1.0
