data_1
_audit_creation_method   'Generated by vasp2cif'
_cell_length_a    6.19716968493
_cell_length_b    4.47504913296
_cell_length_c    8.42488810398
_cell_angle_alpha    94.3641421327
_cell_angle_beta    96.4559845419
_cell_angle_gamma    94.0288326779
_symmetry_space_group_name_H-M    'P 1'
loop_
_atom_site_label
_atom_site_type_symbol
_atom_site_fract_x
_atom_site_fract_y
_atom_site_fract_z
_atom_site_occupancy
C1   C   0.412242749605454   0.823602309498568   0.609583257374204   1.0
C2   C   0.574626734594332   0.614602475645576   0.550099155681139   1.0
H3   H   0.494651685567298   0.439035911023353   0.461095108607459   1.0
H4   H   0.693773593332565   0.746267577408943   0.492412572446852   1.0
H5   H   0.165644504113921   0.476747486843117   0.626446296843604   1.0
H6   H   0.134549432663626   0.795386859234753   0.736272370143389   1.0
H7   H   0.492372674619787   0.004511852113410   0.694735273342125   1.0
H8   H   0.661873066533758   0.510754508600506   0.649189237502327   1.0
H9   H   0.317861827910214   0.918466544269769   0.511148655483950   1.0
H10   H   0.324953935508667   0.577586064975520   0.802699757453219   1.0
N14   N   0.248814835036036   0.654640986133515   0.698976513317909   1.0
