data_1
_audit_creation_method   'Generated by vasp2cif'
_cell_length_a    6.74489007309
_cell_length_b    4.61424323271
_cell_length_c    7.82801593176
_cell_angle_alpha    107.255486361
_cell_angle_beta    88.6406434066
_cell_angle_gamma    84.951438369
_symmetry_space_group_name_H-M    'P 1'
loop_
_atom_site_label
_atom_site_type_symbol
_atom_site_fract_x
_atom_site_fract_y
_atom_site_fract_z
_atom_site_occupancy
C1   C   0.577289634199939   0.468990023774660   0.489207858270988   1.0
C2   C   0.667912809765624   0.768215132143086   0.563493925508296   1.0
H3   H   0.795994755839449   0.726111431829882   0.638296432364685   1.0
H4   H   0.723789020312833   0.849706565626400   0.455950529521413   1.0
H5   H   0.466499407281217   0.558549106267992   0.254278482420390   1.0
H6   H   0.301588069408031   0.668819614147461   0.429559039750305   1.0
H7   H   0.687678605880346   0.290020457822162   0.409939730490729   1.0
H8   H   0.562774513406803   0.942874351948497   0.654106026668832   1.0
H9   H   0.509302359395202   0.395348030682381   0.594952619833854   1.0
H10   H   0.348325295914614   0.300516279698392   0.314457547983678   1.0
N14   N   0.413147414770219   0.500421054538979   0.364132501832119   1.0
