data_1
_audit_creation_method   'Generated by vasp2cif'
_cell_length_a    6.06170509159
_cell_length_b    4.57169031586
_cell_length_c    8.29080314623
_cell_angle_alpha    86.4833090306
_cell_angle_beta    85.5724560386
_cell_angle_gamma    78.2195857605
_symmetry_space_group_name_H-M    'P 1'
loop_
_atom_site_label
_atom_site_type_symbol
_atom_site_fract_x
_atom_site_fract_y
_atom_site_fract_z
_atom_site_occupancy
C1   C   0.469010933647102   0.524438283162858   0.527080401410464   1.0
C2   C   0.646245471548176   0.716847717522633   0.498581619521470   1.0
H3   H   0.805141971663925   0.589760181739763   0.446465075695100   1.0
H4   H   0.590164305703583   0.906003376288578   0.414536100390249   1.0
H5   H   0.532472896911841   0.360448099968101   0.288567896628778   1.0
H6   H   0.314999972207060   0.647797200719689   0.305222129646117   1.0
H7   H   0.531933979575352   0.312893904351070   0.591760144731746   1.0
H8   H   0.677113322418953   0.801213476587704   0.613306677216853   1.0
H9   H   0.316142535365944   0.640897688463524   0.591567059621435   1.0
H10   H   0.282044064268201   0.310300365688056   0.375698789235591   1.0
N14   N   0.395478653108160   0.452998294422193   0.364078510653517   1.0
