data_1
_audit_creation_method   'Generated by vasp2cif'
_cell_length_a    8.93135092533
_cell_length_b    4.22764246908
_cell_length_c    5.82783874042
_cell_angle_alpha    90.5134966051
_cell_angle_beta    89.9871685422
_cell_angle_gamma    92.1966539927
_symmetry_space_group_name_H-M    'P 1'
loop_
_atom_site_label
_atom_site_type_symbol
_atom_site_fract_x
_atom_site_fract_y
_atom_site_fract_z
_atom_site_occupancy
C1   C   0.377574916886465   0.759987597192669   0.411456542026429   1.0
C2   C   0.505874323404382   0.534087389180380   0.412461640421573   1.0
H3   H   0.503403664323174   0.380628942950200   0.260388047740481   1.0
H4   H   0.611264063367392   0.673752603691302   0.410326343155692   1.0
H5   H   0.211289361763670   0.435874531254688   0.272148971107209   1.0
H6   H   0.138431619858810   0.734584026798851   0.416266640086906   1.0
H7   H   0.379418702852404   0.912116748980335   0.563359700347064   1.0
H8   H   0.504708996717190   0.390017845081675   0.567415460416298   1.0
H9   H   0.377570839824431   0.901505468221882   0.256156498903791   1.0
H10   H   0.213547884518391   0.442658134390578   0.560683679012602   1.0
N14   N   0.225684564403825   0.581371563883559   0.415416441564076   1.0
