data_1
_audit_creation_method   'Generated by vasp2cif'
_cell_length_a    11.0724999406
_cell_length_b    4.69500420901
_cell_length_c    4.52376410007
_cell_angle_alpha    90.0475433294
_cell_angle_beta    89.9758981413
_cell_angle_gamma    85.2430931118
_symmetry_space_group_name_H-M    'P 1'
loop_
_atom_site_label
_atom_site_type_symbol
_atom_site_fract_x
_atom_site_fract_y
_atom_site_fract_z
_atom_site_occupancy
C1   C   0.596747176388924   0.712401136560011   0.548439591297672   1.0
C2   C   0.515550303754758   0.468001935898968   0.521593192433187   1.0
H3   H   0.527398656847375   0.322071267644162   0.709411842580451   1.0
H4   H   0.421017218471462   0.554821303124086   0.518595865755117   1.0
H5   H   0.748654585632941   0.461714868469123   0.728347175123318   1.0
H6   H   0.784607268819997   0.767217176952570   0.574819548801294   1.0
H7   H   0.585929416340988   0.859597060840308   0.362362203881382   1.0
H8   H   0.533191817378096   0.348409659105840   0.316339963680747   1.0
H9   H   0.580303366052021   0.832780417898917   0.752756877337710   1.0
H10   H   0.754507219290936   0.487931461427145   0.363118935192716   1.0
N14   N   0.729880903216817   0.601618257669230   0.553271951583405   1.0
