data_1
_audit_creation_method   'Generated by vasp2cif'
_cell_length_a    9.58101350373
_cell_length_b    4.58081559078
_cell_length_c    5.66192496969
_cell_angle_alpha    83.6727808486
_cell_angle_beta    99.8653049583
_cell_angle_gamma    111.032513157
_symmetry_space_group_name_H-M    'P 1'
loop_
_atom_site_label
_atom_site_type_symbol
_atom_site_fract_x
_atom_site_fract_y
_atom_site_fract_z
_atom_site_occupancy
C1   C   0.617464784251469   0.685305899672630   0.503831460914392   1.0
C2   C   0.493206510448865   0.580533552651906   0.663162003114443   1.0
H3   H   0.392323054763957   0.399463230935256   0.579446271698165   1.0
H4   H   0.531588680866946   0.488815615640606   0.838799545496516   1.0
H5   H   0.703510544185886   0.324929303416403   0.630155742727210   1.0
H6   H   0.750674919378165   0.482571298187992   0.361222750973509   1.0
H7   H   0.580726213353298   0.770575997445066   0.325357607557438   1.0
H8   H   0.461723908679095   0.780084406501443   0.691455661569445   1.0
H9   H   0.720049069284903   0.861046389019668   0.585885121700292   1.0
H10   H   0.572817494492285   0.242468044932972   0.377636939556762   1.0
N14   N   0.664393423729022   0.414021230402982   0.465295965104991   1.0
