data_1
_audit_creation_method   'Generated by vasp2cif'
_cell_length_a    6.08237538271
_cell_length_b    6.10473446827
_cell_length_c    7.2912074242
_cell_angle_alpha    74.6121502404
_cell_angle_beta    85.6798943653
_cell_angle_gamma    86.5023379609
_symmetry_space_group_name_H-M    'P 1'
loop_
_atom_site_label
_atom_site_type_symbol
_atom_site_fract_x
_atom_site_fract_y
_atom_site_fract_z
_atom_site_occupancy
C1   C   0.679643161129121   0.670573849875822   0.385548039518071   1.0
C2   C   0.615914556281787   0.441387557049396   0.364337217228979   1.0
C3   C   0.619872565305968   0.443367673726158   0.153938033326533   1.0
H4   H   0.780498687575786   0.492620070893857   0.081347094692120   1.0
H5   H   0.588331596679545   0.274853709518517   0.140286572927337   1.0
H6   H   0.450998818959668   0.400742911595721   0.432657132180630   1.0
H7   H   0.732434887971223   0.308627102161047   0.437365421266442   1.0
H8   H   0.519376046404204   0.619877609398408   0.660814380035511   1.0
H9   H   0.700089534336719   0.825756480784378   0.615123894531223   1.0
H10   H   0.493064667652419   0.562191537765258   0.080023980461391   1.0
H11   H   0.847606968558139   0.711060114567736   0.328569270436859   1.0
H12   H   0.566246261081794   0.809167681248667   0.318254622106231   1.0
H13   H   0.791844447039068   0.557337646890964   0.665353073352598   1.0
N17   N   0.672312512237141   0.668709478910941   0.594531126173138   1.0
