data_1
_audit_creation_method   'Generated by vasp2cif'
_cell_length_a    6.00424765683
_cell_length_b    6.06167472555
_cell_length_c    7.47855291693
_cell_angle_alpha    101.568628294
_cell_angle_beta    80.7647148011
_cell_angle_gamma    89.5188646808
_symmetry_space_group_name_H-M    'P 1'
loop_
_atom_site_label
_atom_site_type_symbol
_atom_site_fract_x
_atom_site_fract_y
_atom_site_fract_z
_atom_site_occupancy
C1   C   0.412563718775750   0.680235898925510   0.602653628932202   1.0
C2   C   0.324993853056561   0.499457728431693   0.708248837053986   1.0
C3   C   0.440454754952327   0.512102507211694   0.878155878861719   1.0
H4   H   0.395357923299940   0.671179327042225   0.977127379849662   1.0
H5   H   0.390369261190578   0.374400362918301   0.948134175925475   1.0
H6   H   0.359370030301001   0.332869844499214   0.616992933669067   1.0
H7   H   0.140828137537476   0.520711519187898   0.749690821406581   1.0
H8   H   0.320241725116517   0.511585696908980   0.350186288498229   1.0
H9   H   0.360590934537960   0.786807384676159   0.357279913676841   1.0
H10   H   0.624275637303320   0.498677512507726   0.838122212227780   1.0
H11   H   0.378035460588805   0.850390192190318   0.686299932105683   1.0
H12   H   0.593509884999513   0.657340418182017   0.551657679239113   1.0
H13   H   0.127339872354753   0.708574101178939   0.474438235029538   1.0
N17   N   0.298316666872054   0.670402673859691   0.434679586472427   1.0
