data_1
_audit_creation_method   'Generated by vasp2cif'
_cell_length_a    6.03758933194
_cell_length_b    6.08682643799
_cell_length_c    7.42436614572
_cell_angle_alpha    102.063681636
_cell_angle_beta    80.8583571383
_cell_angle_gamma    90.1970701034
_symmetry_space_group_name_H-M    'P 1'
loop_
_atom_site_label
_atom_site_type_symbol
_atom_site_fract_x
_atom_site_fract_y
_atom_site_fract_z
_atom_site_occupancy
C1   C   0.502658017861528   0.607301455298845   0.618567014557790   1.0
C2   C   0.405826775374173   0.435088008861477   0.729680245371846   1.0
C3   C   0.533859063550750   0.435474451422373   0.892053426526623   1.0
H4   H   0.513637457288269   0.597917371428636   0.990345696611406   1.0
H5   H   0.472969122093474   0.305942547518853   0.967747627031507   1.0
H6   H   0.418942571263216   0.267701285819427   0.637804036243104   1.0
H7   H   0.226394501248734   0.472608913271728   0.781419272813274   1.0
H8   H   0.403126308452549   0.439668421766818   0.365766361660498   1.0
H9   H   0.449429121652713   0.713154771191547   0.372204419840401   1.0
H10   H   0.713161161851140   0.401264575113480   0.841100306766627   1.0
H11   H   0.479908325174591   0.779376259534615   0.700495969573254   1.0
H12   H   0.680814299798598   0.574581955318351   0.564521468751735   1.0
H13   H   0.217250557878153   0.639221831028841   0.492921082597000   1.0
N17   N   0.386108142919468   0.598566141576626   0.450860379934092   1.0
