data_1
_audit_creation_method   'Generated by vasp2cif'
_cell_length_a    6.33708883015
_cell_length_b    6.16645017912
_cell_length_c    6.45911571642
_cell_angle_alpha    97.3321709904
_cell_angle_beta    82.0408400889
_cell_angle_gamma    95.4156126082
_symmetry_space_group_name_H-M    'P 1'
loop_
_atom_site_label
_atom_site_type_symbol
_atom_site_fract_x
_atom_site_fract_y
_atom_site_fract_z
_atom_site_occupancy
C1   C   0.498802238978307   0.574375619793833   0.619834528698233   1.0
C2   C   0.495719076804823   0.425628032397486   0.791628658240626   1.0
C3   C   0.603665428547399   0.213131393383503   0.712545429782448   1.0
H4   H   0.766221008897060   0.249412962375710   0.636037492604312   1.0
H5   H   0.614007178019399   0.121144705772805   0.843156972198166   1.0
H6   H   0.330575345991604   0.391200778972236   0.864247346707177   1.0
H7   H   0.581165291451112   0.519550574867808   0.914298130784952   1.0
H8   H   0.397547523292128   0.319990566414624   0.385747452653960   1.0
H9   H   0.362300211141353   0.575235424503402   0.338878397451509   1.0
H10   H   0.514710096696826   0.106183146044520   0.600462982351145   1.0
H11   H   0.438855483917388   0.732905930488809   0.680733243826995   1.0
H12   H   0.658435816254731   0.597883316694418   0.534564391425318   1.0
H13   H   0.197518914238159   0.459401243629963   0.521452736318956   1.0
N17   N   0.355113772183860   0.473001017482386   0.455570889035999   1.0
