data_1
_audit_creation_method   'Generated by vasp2cif'
_cell_length_a    6.38671331773
_cell_length_b    6.39283668529
_cell_length_c    6.28395069894
_cell_angle_alpha    78.32290589
_cell_angle_beta    89.6065230881
_cell_angle_gamma    83.9165091619
_symmetry_space_group_name_H-M    'P 1'
loop_
_atom_site_label
_atom_site_type_symbol
_atom_site_fract_x
_atom_site_fract_y
_atom_site_fract_z
_atom_site_occupancy
C1   C   0.589866207103732   0.595354712730391   0.361651302258359   1.0
C2   C   0.619918468390033   0.409312207437793   0.242530398146002   1.0
C3   C   0.416113733924711   0.307577694815379   0.220818117499419   1.0
H4   H   0.289949024450493   0.426228664674277   0.139992521746699   1.0
H5   H   0.442292381697158   0.181298045253527   0.127048927568261   1.0
H6   H   0.742824182556774   0.287439763206287   0.324953400047484   1.0
H7   H   0.681973497514065   0.472652536581656   0.082044089513083   1.0
H8   H   0.584683463697736   0.382269540472549   0.668442706049298   1.0
H9   H   0.344383344832103   0.494132062011452   0.582234649735618   1.0
H10   H   0.357945188756872   0.232442620969472   0.379064342545675   1.0
H11   H   0.737671590992072   0.657844356880503   0.386882425167442   1.0
H12   H   0.477532270484538   0.726621530850544   0.279087168572964   1.0
H13   H   0.512336189583031   0.639995772301873   0.676943208049089   1.0
N17   N   0.500656702612041   0.522012639976921   0.587374430549843   1.0
