data_1
_audit_creation_method   'Generated by vasp2cif'
_cell_length_a    8.14070589064
_cell_length_b    4.46238422846
_cell_length_c    7.53861008483
_cell_angle_alpha    75.7241926315
_cell_angle_beta    84.7510578539
_cell_angle_gamma    75.8958452301
_symmetry_space_group_name_H-M    'P 1'
loop_
_atom_site_label
_atom_site_type_symbol
_atom_site_fract_x
_atom_site_fract_y
_atom_site_fract_z
_atom_site_occupancy
C1   C   0.909923597210891   0.359814716428083   0.378724463602161   1.0
C2   C   0.746472890600060   0.242361265312368   0.426368700441209   1.0
C3   C   0.669742622943218   0.222685019773785   0.251370040691007   1.0
H4   H   0.557655872777161   0.123425494920205   0.288981393062826   1.0
H5   H   0.760526793790255   0.071440187127131   0.175165739673837   1.0
H6   H   0.773383128501756   0.006339409206433   0.519872528585104   1.0
H7   H   0.654742047740875   0.397712204035770   0.499542117578528   1.0
H8   H   0.039291957429889   0.046160790518513   0.610930156526976   1.0
H9   H   0.966767918789223   0.410052364663414   0.641785840108341   1.0
H10   H   0.987643138034997   0.242267068979949   0.279264267091129   1.0
H11   H   0.633822917212832   0.458453750672383   0.159532265212455   1.0
H12   H   0.887182419013989   0.615569554281919   0.323602757750791   1.0
H13   H   0.136314176842369   0.335463015229116   0.503840688988696   1.0
N17   N   0.019578852497673   0.283086520521579   0.543798465843409   1.0
