data_1
_audit_creation_method   'Generated by vasp2cif'
_cell_length_a    7.89000076617
_cell_length_b    4.49895606819
_cell_length_c    8.40083071705
_cell_angle_alpha    85.1884948418
_cell_angle_beta    113.395240378
_cell_angle_gamma    102.862005924
_symmetry_space_group_name_H-M    'P 1'
loop_
_atom_site_label
_atom_site_type_symbol
_atom_site_fract_x
_atom_site_fract_y
_atom_site_fract_z
_atom_site_occupancy
C1   C   0.906183310652402   0.553829249037463   0.392998625295725   1.0
C2   C   0.745837856722183   0.654865639034000   0.417357570196948   1.0
C3   C   0.623463987605433   0.786348131315854   0.245891954127693   1.0
H4   H   0.708345393775545   0.957772759585403   0.191728677559517   1.0
H5   H   0.521568758350313   0.893626883167300   0.265071547684443   1.0
H6   H   0.658978560714338   0.461929832378161   0.456698367327192   1.0
H7   H   0.802446726375415   0.823070905692219   0.522678738396721   1.0
H8   H   0.959513648674360   0.268358088439818   0.616194082351079   1.0
H9   H   0.124638989568524   0.585071148477013   0.645444140355430   1.0
H10   H   0.850837285926147   0.381852279946877   0.290624060160482   1.0
H11   H   0.545463484304115   0.606648178063352   0.147844470256011   1.0
H12   H   0.997951564654521   0.746668084131677   0.360091784567473   1.0
H13   H   0.119207493228572   0.304092285076699   0.524369470818669   1.0
N17   N   0.034464454017183   0.416230896679231   0.554597703833522   1.0
