data_1
_audit_creation_method   'Generated by vasp2cif'
_cell_length_a    11.4142956701
_cell_length_b    4.40323759419
_cell_length_c    6.2336915553
_cell_angle_alpha    94.8611344728
_cell_angle_beta    58.9007670445
_cell_angle_gamma    108.793977897
_symmetry_space_group_name_H-M    'P 1'
loop_
_atom_site_label
_atom_site_type_symbol
_atom_site_fract_x
_atom_site_fract_y
_atom_site_fract_z
_atom_site_occupancy
C1   C   0.580378754685353   0.699716685236508   0.002844544246309   1.0
C2   C   0.641785262733169   0.869935264290570   0.745176538159581   1.0
C3   C   0.784644929597290   0.145489436049171   0.663598844189579   1.0
H4   H   0.777585072549316   0.294760228826802   0.816845854061583   1.0
H5   H   0.813494981983165   0.301041297003060   0.504369954712255   1.0
H6   H   0.659857297594272   0.695341094264676   0.604539478443289   1.0
H7   H   0.561261394668347   0.959683468594066   0.749978807228435   1.0
H8   H   0.446194851483632   0.291831657003902   0.932335239526744   1.0
H9   H   0.354312450313867   0.514537733847262   0.134988517612956   1.0
H10   H   0.654705594108050   0.594568714381806   0.002806033971489   1.0
H11   H   0.873188139379413   0.050596521963533   0.605570502859898   1.0
H12   H   0.555506761601955   0.860945838025641   0.152421999129701   1.0
H13   H   0.410391461413908   0.279438502548827   0.231647518194519   1.0
N17   N   0.439868243064247   0.427456982624359   0.079202949749949   1.0
