data_1
_audit_creation_method   'Generated by vasp2cif'
_cell_length_a    6.01930138673
_cell_length_b    6.0263480973
_cell_length_c    9.79820427976
_cell_angle_alpha    61.7459980655
_cell_angle_beta    123.408505283
_cell_angle_gamma    95.5392205008
_symmetry_space_group_name_H-M    'P 1'
loop_
_atom_site_label
_atom_site_type_symbol
_atom_site_fract_x
_atom_site_fract_y
_atom_site_fract_z
_atom_site_occupancy
C1   C   0.888581979871866   0.592644094354377   0.384885965945898   1.0
C2   C   0.708129685648537   0.781032054727554   0.366292483065443   1.0
C3   C   0.544732449586924   0.009474472193794   0.162775562943928   1.0
H4   H   0.682565798047804   0.104346556276184   0.125424265560532   1.0
H5   H   0.421016059514805   0.149834669506049   0.148171155657984   1.0
H6   H   0.571538474395410   0.682378367936394   0.404536863699448   1.0
H7   H   0.835522582464847   0.850959042557790   0.464521763046584   1.0
H8   H   0.958654856130124   0.278844814249766   0.639586649748203   1.0
H9   H   0.205590351754921   0.439102568472649   0.676135377859374   1.0
H10   H   0.767538675780848   0.505184404745108   0.298491130538323   1.0
H11   H   0.409928476068153   0.947164987574482   0.061127743434028   1.0
H12   H   0.024368442221615   0.687161625946828   0.345050060263461   1.0
H13   H   0.184845852921654   0.237875678477494   0.598352230095870   1.0
N17   N   0.071883727411880   0.370923469441450   0.587814703439847   1.0
