data_1
_audit_creation_method   'Generated by vasp2cif'
_cell_length_a    7.68557205813
_cell_length_b    6.17538296624
_cell_length_c    6.24988513921
_cell_angle_alpha    84.8637007127
_cell_angle_beta    101.57248724
_cell_angle_gamma    105.450518312
_symmetry_space_group_name_H-M    'P 1'
loop_
_atom_site_label
_atom_site_type_symbol
_atom_site_fract_x
_atom_site_fract_y
_atom_site_fract_z
_atom_site_occupancy
C1   C   0.192496981806528   0.671564391510955   0.496381882826071   1.0
C2   C   0.500471574126991   0.262740386930425   0.487028582418482   1.0
C3   C   0.336625627112646   0.365780888484807   0.438843231994490   1.0
C4   C   0.362110762009301   0.578517595951404   0.564136675930293   1.0
H5   H   0.600695536750287   0.384737668536261   0.196035230292360   1.0
H6   H   0.758462944863155   0.318393332860168   0.392231551290294   1.0
H7   H   0.698830045221904   0.559716865537453   0.402421631046494   1.0
H8   H   0.166859983188992   0.704686047571109   0.319603623138782   1.0
H9   H   0.070872135764262   0.549993871992264   0.539524081206579   1.0
H10   H   0.209184194851218   0.826578056773798   0.577408867415130   1.0
H11   H   0.217955059450823   0.237608258500948   0.480062400909638   1.0
H12   H   0.302840778270436   0.402507043665835   0.262167242417405   1.0
H13   H   0.385118138259522   0.538416832750528   0.740891653111028   1.0
H14   H   0.484293578482280   0.707459862987143   0.531429943871323   1.0
H15   H   0.563527459926696   0.267471045572975   0.659287986132206   1.0
H16   H   0.464614013313977   0.090969014144598   0.433461604112935   1.0
N20   N   0.649641342427486   0.392472813802378   0.362130038128193   1.0
