data_1
_audit_creation_method   'Generated by vasp2cif'
_cell_length_a    6.24837829009
_cell_length_b    6.15305875408
_cell_length_c    7.72298462155
_cell_angle_alpha    74.5814777462
_cell_angle_beta    78.1029263392
_cell_angle_gamma    84.4618787386
_symmetry_space_group_name_H-M    'P 1'
loop_
_atom_site_label
_atom_site_type_symbol
_atom_site_fract_x
_atom_site_fract_y
_atom_site_fract_z
_atom_site_occupancy
C1   C   0.513371336835696   0.683040707721986   0.808767176025562   1.0
C2   C   0.502071257507097   0.276617148587995   0.499326398002374   1.0
C3   C   0.453966895312199   0.378965991692716   0.663284017702381   1.0
C4   C   0.575839646007140   0.594221983214929   0.636927429854396   1.0
H5   H   0.210631443601095   0.402342490293052   0.401087449514264   1.0
H6   H   0.406455512199266   0.334001878898469   0.243147899701832   1.0
H7   H   0.418130317150677   0.575777082131019   0.302584950914245   1.0
H8   H   0.335806528312119   0.710589402984745   0.841777285593643   1.0
H9   H   0.565547861223578   0.560916704148461   0.925824773002411   1.0
H10   H   0.590256189738867   0.840888661381761   0.790902681653961   1.0
H11   H   0.499013569818807   0.250443130126548   0.779855554922491   1.0
H12   H   0.276625959269424   0.413425763106922   0.699766727875392   1.0
H13   H   0.753483377353639   0.557532945678027   0.607436831283913   1.0
H14   H   0.535947028396606   0.724902453525566   0.518687645976271   1.0
H15   H   0.674661103909813   0.280524202212156   0.436071367556707   1.0
H16   H   0.448471384831606   0.104617264074690   0.534501568813390   1.0
N20   N   0.376966900752386   0.408461990920550   0.351630371758709   1.0
