data_1
_audit_creation_method   'Generated by vasp2cif'
_cell_length_a    6.33335867059
_cell_length_b    7.36542260433
_cell_length_c    6.25419002249
_cell_angle_alpha    81.6567682642
_cell_angle_beta    94.2908084391
_cell_angle_gamma    109.430885856
_symmetry_space_group_name_H-M    'P 1'
loop_
_atom_site_label
_atom_site_type_symbol
_atom_site_fract_x
_atom_site_fract_y
_atom_site_fract_z
_atom_site_occupancy
C1   C   0.208564867744769   0.685953919486778   0.527232145810707   1.0
C2   C   0.425732517767898   0.268674339061938   0.423539222621052   1.0
C3   C   0.327999014892185   0.433853329221222   0.379017288056325   1.0
C4   C   0.286493656117024   0.508863462991499   0.583815699598205   1.0
H5   H   0.761720535706559   0.449315227688970   0.410262543498838   1.0
H6   H   0.730186726835164   0.226112244174423   0.534564768724515   1.0
H7   H   0.672584337094996   0.387585811000932   0.665972266111346   1.0
H8   H   0.339547164047225   0.807142794735910   0.443586044687805   1.0
H9   H   0.060993125967308   0.655117672109888   0.418379370562121   1.0
H10   H   0.167853650821897   0.731858238641784   0.671811293998935   1.0
H11   H   0.169488116681002   0.380909403740752   0.287692212581639   1.0
H12   H   0.437362869537182   0.554128513557117   0.271331608693075   1.0
H13   H   0.161643279355609   0.391474687389817   0.682536578738841   1.0
H14   H   0.439200603294694   0.549187116047406   0.686285451514458   1.0
H15   H   0.331013654061756   0.150731589620591   0.540609169281545   1.0
H16   H   0.439182685157966   0.210453815397123   0.276538803914725   1.0
N20   N   0.663690668029275   0.339010439043449   0.517442187388461   1.0
