data_1
_audit_creation_method   'Generated by vasp2cif'
_cell_length_a    6.51962275339
_cell_length_b    6.2388042944
_cell_length_c    6.24249190531
_cell_angle_alpha    82.0014331562
_cell_angle_beta    84.0611847502
_cell_angle_gamma    90.9079047896
_symmetry_space_group_name_H-M    'P 1'
loop_
_atom_site_label
_atom_site_type_symbol
_atom_site_fract_x
_atom_site_fract_y
_atom_site_fract_z
_atom_site_occupancy
C1   C   0.412862721480600   0.699730360629211   0.197878137981391   1.0
C2   C   0.566855972848657   0.886450594715107   0.197196843269545   1.0
C3   C   0.485880827879939   0.052814327718885   0.339154745111770   1.0
H4   H   0.451595258035823   0.977819163357260   0.508871426159416   1.0
H5   H   0.595425895657584   0.187847163408584   0.331849395362163   1.0
H6   H   0.343377821820830   0.116083623982583   0.281882668752267   1.0
H7   H   0.868563459347719   0.920162718385249   0.292315811255868   1.0
H8   H   0.616424320717741   0.962536917255633   0.030887461361623   1.0
H9   H   0.478391646713071   0.572767608177983   0.110141178848913   1.0
H10   H   0.280492139900446   0.762084059514670   0.117292044723634   1.0
H11   H   0.359068559741772   0.629132890268757   0.365087296617254   1.0
H12   H   0.834154551304167   0.689193202973975   0.189867691607709   1.0
H13   H   0.729074539056455   0.711814955033404   0.441000306555018   1.0
N17   N   0.764256689800995   0.795341750377659   0.285677772825558   1.0
