data_1
_audit_creation_method   'Generated by vasp2cif'
_cell_length_a    8.27200857622
_cell_length_b    4.71029747619
_cell_length_c    7.27271258046
_cell_angle_alpha    109.546910975
_cell_angle_beta    79.2355692113
_cell_angle_gamma    104.315613959
_symmetry_space_group_name_H-M    'P 1'
loop_
_atom_site_label
_atom_site_type_symbol
_atom_site_fract_x
_atom_site_fract_y
_atom_site_fract_z
_atom_site_occupancy
C1   C   0.348697280266826   0.355410004237804   0.684242469952075   1.0
C2   C   0.403123454333212   0.052531917610338   0.562020322531225   1.0
C3   C   0.271426287607127   0.839547550183731   0.428792617432727   1.0
H4   H   0.150934441850566   0.797605728675947   0.516979930276968   1.0
H5   H   0.305830827509730   0.619068491836693   0.345413764192351   1.0
H6   H   0.252422568284324   0.947559700490380   0.324363933588629   1.0
H7   H   0.662731504366448   0.265279878575683   0.513768271620386   1.0
H8   H   0.431808135796466   0.944081351997326   0.659970308115284   1.0
H9   H   0.292106248664886   0.440518726352032   0.594056222315039   1.0
H10   H   0.254637263207158   0.308764231128372   0.803815666952936   1.0
H11   H   0.452048753210775   0.531162157395507   0.751642215321056   1.0
H12   H   0.611580210805265   0.908713614402267   0.360585693295917   1.0
H13   H   0.557423747701975   0.201588647277894   0.325387193218127   1.0
N17   N   0.569825834625412   0.111273161858179   0.433444198200853   1.0
