data_1
_audit_creation_method   'Generated by vasp2cif'
_cell_length_a    7.35189943226
_cell_length_b    4.69250619938
_cell_length_c    8.16308892746
_cell_angle_alpha    104.35408063
_cell_angle_beta    90.8100723065
_cell_angle_gamma    108.330768264
_symmetry_space_group_name_H-M    'P 1'
loop_
_atom_site_label
_atom_site_type_symbol
_atom_site_fract_x
_atom_site_fract_y
_atom_site_fract_z
_atom_site_occupancy
C1   C   0.330603446872281   0.643466849478415   0.326848665454207   1.0
C2   C   0.452044947011196   0.469912121720611   0.387237788118661   1.0
C3   C   0.582933092656688   0.381211414353246   0.254407557070444   1.0
H4   H   0.496629412712778   0.242669515767702   0.134398497176726   1.0
H5   H   0.665827605186152   0.249057660241441   0.293294298843122   1.0
H6   H   0.684235630356795   0.590375713321855   0.229450123894203   1.0
H7   H   0.499728180923704   0.756327025346337   0.644914154187731   1.0
H8   H   0.357056721631935   0.267584324445366   0.422119426860995   1.0
H9   H   0.418361926932704   0.815021817867745   0.265826440925423   1.0
H10   H   0.215293595859656   0.471064528564625   0.233247209086699   1.0
H11   H   0.261946856705713   0.755246956848715   0.429422446941850   1.0
H12   H   0.645641710964867   0.541421382702111   0.602200265999052   1.0
H13   H   0.687111335772450   0.859756622426680   0.534840350790695   1.0
N17   N   0.578108136649796   0.668881034868200   0.553109619903012   1.0
