data_1
_audit_creation_method   'Generated by vasp2cif'
_cell_length_a    7.76568716126
_cell_length_b    4.46112704475
_cell_length_c    7.80165498627
_cell_angle_alpha    76.3744758944
_cell_angle_beta    78.8261535302
_cell_angle_gamma    90.3116594075
_symmetry_space_group_name_H-M    'P 1'
loop_
_atom_site_label
_atom_site_type_symbol
_atom_site_fract_x
_atom_site_fract_y
_atom_site_fract_z
_atom_site_occupancy
C1   C   0.569775974140754   0.009494978759435   0.297053310021120   1.0
C2   C   0.545907918201578   0.990428951924414   0.498511846084604   1.0
C3   C   0.688911732679429   0.176667236565109   0.543699264778439   1.0
H4   H   0.813924165575507   0.069125831430817   0.515067994336874   1.0
H5   H   0.664062032823807   0.179362609677270   0.685931639769237   1.0
H6   H   0.703202952570550   0.414653257942739   0.461869414680848   1.0
H7   H   0.351726990617131   0.113239570789844   0.701927585182368   1.0
H8   H   0.541896508798445   0.751564753323770   0.575682236946534   1.0
H9   H   0.463992421262510   0.885863080825082   0.263409118997942   1.0
H10   H   0.576583305482721   0.249847500872356   0.219272572224107   1.0
H11   H   0.693110440263112   0.907055099637084   0.252255651244745   1.0
H12   H   0.337523505491795   0.312583430863285   0.495538422203353   1.0
H13   H   0.264384919335747   0.947632881778681   0.563514318027380   1.0
N17   N   0.363666609689275   0.098829309650490   0.569591041831380   1.0
