data_1
_audit_creation_method   'Generated by vasp2cif'
_cell_length_a    6.2592063061
_cell_length_b    4.47953103491
_cell_length_c    9.06040248891
_cell_angle_alpha    84.1913819735
_cell_angle_beta    85.5157762953
_cell_angle_gamma    95.545257518
_symmetry_space_group_name_H-M    'P 1'
loop_
_atom_site_label
_atom_site_type_symbol
_atom_site_fract_x
_atom_site_fract_y
_atom_site_fract_z
_atom_site_occupancy
C1   C   0.493796716668691   0.582810882599358   0.648566000737668   1.0
C2   C   0.436498484264128   0.427261577246602   0.513028829420189   1.0
C3   C   0.296388667955196   0.602746278875835   0.413009176145958   1.0
H4   H   0.155606364199498   0.654101729781621   0.481264119641223   1.0
H5   H   0.242672487969797   0.474920586113909   0.324107653068197   1.0
H6   H   0.382469058138515   0.816634007558743   0.360541987132638   1.0
H7   H   0.618323914407317   0.269046980196206   0.330357397368008   1.0
H8   H   0.357945702426617   0.200037605831952   0.547940872224807   1.0
H9   H   0.580738563431767   0.442321055183557   0.723267591469779   1.0
H10   H   0.593022204381909   0.797769143528652   0.616319055851819   1.0
H11   H   0.346091004651135   0.629073772490668   0.710403173420856   1.0
H12   H   0.731856263627830   0.587463375674885   0.378918837491765   1.0
H13   H   0.746876535969951   0.265332075104679   0.486779203395864   1.0
N17   N   0.646678510243175   0.382032200007624   0.422142608437163   1.0
