data_1
_audit_creation_method   'Generated by vasp2cif'
_cell_length_a    6.18738459841
_cell_length_b    6.19861040994
_cell_length_c    6.15678717948
_cell_angle_alpha    81.8387008811
_cell_angle_beta    98.878485861
_cell_angle_gamma    94.7591346059
_symmetry_space_group_name_H-M    'P 1'
loop_
_atom_site_label
_atom_site_type_symbol
_atom_site_fract_x
_atom_site_fract_y
_atom_site_fract_z
_atom_site_occupancy
H4   H   0.522562993945087   0.669691432555567   0.377038659349445   1.0
H5   H   0.671599872805821   0.351518313345764   0.276362748150135   1.0
H6   H   0.670606373908456   0.531792780682046   0.594715395699758   1.0
H7   H   0.184409544739388   0.488772051421705   0.499009599323863   1.0
H8   H   0.353309938172004   0.357538907689808   0.735050752757680   1.0
H9   H   0.338996503927895   0.648255883838132   0.697260544591842   1.0
H10   H   0.378587671147521   0.347225420723497   0.226459170550207   1.0
H11   H   0.513462465585079   0.185431367165691   0.464912370238594   1.0
C12   C   0.335247348942701   0.504086604120012   0.614682729724159   1.0
C13   C   0.523008993433258   0.337308106190122   0.352541202269798   1.0
N15   N   0.525939980744106   0.525103128140778   0.484969941483442   1.0
