data_1
_audit_creation_method   'Generated by vasp2cif'
_cell_length_a    6.12596499897
_cell_length_b    4.42719666114
_cell_length_c    8.55384729791
_cell_angle_alpha    88.12567853
_cell_angle_beta    83.1670366368
_cell_angle_gamma    82.5713530005
_symmetry_space_group_name_H-M    'P 1'
loop_
_atom_site_label
_atom_site_type_symbol
_atom_site_fract_x
_atom_site_fract_y
_atom_site_fract_z
_atom_site_occupancy
H4   H   0.297187782380788   0.277828779163612   0.545566142152818   1.0
H5   H   0.634402438655541   0.468711027892378   0.420485807745587   1.0
H6   H   0.498801526161655   0.808622931272167   0.397034246758470   1.0
H7   H   0.557409374015541   0.479985334283139   0.703047193270085   1.0
H8   H   0.694233022350964   0.795787324921029   0.627670031460087   1.0
H9   H   0.401069002016527   0.846368473815964   0.687792679113013   1.0
H10   H   0.287852227112697   0.404789113743277   0.344287276505296   1.0
H11   H   0.150023966082955   0.638106331506200   0.502412432775157   1.0
C12   C   0.541422567337685   0.692306221004228   0.634812756079786   1.0
C13   C   0.292653965418054   0.472838020773570   0.464668296598066   1.0
N15   N   0.500791095175611   0.618603468875267   0.470188702636623   1.0
