data_1
_audit_creation_method   'Generated by vasp2cif'
_cell_length_a    7.97160052104
_cell_length_b    4.4773079998
_cell_length_c    7.06809182359
_cell_angle_alpha    104.553155078
_cell_angle_beta    94.8957134278
_cell_angle_gamma    102.833335542
_symmetry_space_group_name_H-M    'P 1'
loop_
_atom_site_label
_atom_site_type_symbol
_atom_site_fract_x
_atom_site_fract_y
_atom_site_fract_z
_atom_site_occupancy
H4   H   0.416260036024056   0.593693277601680   0.308029667088313   1.0
H5   H   0.543861063749702   0.011738630239151   0.621688613045848   1.0
H6   H   0.604647007801852   0.268288351848810   0.494954698627289   1.0
H7   H   0.241230539742403   0.923166008695254   0.510510012669599   1.0
H8   H   0.337834712433228   0.340474496551806   0.606994560713865   1.0
H9   H   0.291348268355691   0.158233189831343   0.344078822113815   1.0
H10   H   0.649382035618004   0.747512795302740   0.342649447829089   1.0
H11   H   0.510488419143535   0.874646718340166   0.184661220183635   1.0
C12   C   0.331132828526357   0.128437191728707   0.487643101761648   1.0
C13   C   0.522962627398137   0.798752448070751   0.318554826316792   1.0
N15   N   0.510152422229311   0.066423438902945   0.491334551377129   1.0
