data_1
_audit_creation_method   'Generated by vasp2cif'
_cell_length_a    6.28018816868
_cell_length_b    6.20560689812
_cell_length_c    6.20149950401
_cell_angle_alpha    88.5191257861
_cell_angle_beta    98.8579562099
_cell_angle_gamma    81.9411061022
_symmetry_space_group_name_H-M    'P 1'
loop_
_atom_site_label
_atom_site_type_symbol
_atom_site_fract_x
_atom_site_fract_y
_atom_site_fract_z
_atom_site_occupancy
C1   C   0.359190046081892   0.408756311327266   0.596986825235518   1.0
C2   C   0.515219849923831   0.519150943962671   0.489717414875265   1.0
H3   H   0.698225572804191   0.502205396258148   0.239720927659512   1.0
H4   H   0.685752773270963   0.780438258575764   0.506542457855097   1.0
H5   H   0.347672790999063   0.246724528590626   0.536862040894043   1.0
H6   H   0.197430369893922   0.506527681599600   0.563447133437130   1.0
H7   H   0.410382803678935   0.395422804706982   0.774004068436540   1.0
H8   H   0.522741878911283   0.760588427909731   0.706056619031962   1.0
H9   H   0.542468883701119   0.294560808467203   0.258156950152731   1.0
N13   N   0.588247592805956   0.435766222354857   0.316131616676259   1.0
N14   N   0.575225708722186   0.701329006264658   0.568966284574159   1.0
