data_1
_audit_creation_method   'Generated by vasp2cif'
_cell_length_a    6.28368384221
_cell_length_b    6.21977773602
_cell_length_c    6.22238492471
_cell_angle_alpha    91.0594187445
_cell_angle_beta    98.8719560717
_cell_angle_gamma    98.8338051682
_symmetry_space_group_name_H-M    'P 1'
loop_
_atom_site_label
_atom_site_type_symbol
_atom_site_fract_x
_atom_site_fract_y
_atom_site_fract_z
_atom_site_occupancy
C1   C   0.643472534859562   0.504994992189665   0.521862497516395   1.0
C2   C   0.495451802814955   0.618482792768120   0.633935675772996   1.0
H3   H   0.318169553955300   0.599070539101305   0.887680487559372   1.0
H4   H   0.318214520687199   0.872379530389239   0.614027558693920   1.0
H5   H   0.761237480352712   0.439294558806097   0.639969563858074   1.0
H6   H   0.731342614769503   0.614377514913507   0.418973531631963   1.0
H7   H   0.545688747924736   0.368968264147469   0.418919128322450   1.0
H8   H   0.479659635414052   0.855729259035115   0.413660659409217   1.0
H9   H   0.479103998335105   0.398193877247614   0.871306315852195   1.0
N13   N   0.429538986517088   0.536735210566214   0.811861964136853   1.0
N14   N   0.429590174215178   0.796321722187301   0.551857207049508   1.0
