data_1
_audit_creation_method   'Generated by vasp2cif'
_cell_length_a    6.2274550409
_cell_length_b    6.17953903242
_cell_length_c    6.25091988411
_cell_angle_alpha    84.4947909365
_cell_angle_beta    100.630766402
_cell_angle_gamma    89.1956622912
_symmetry_space_group_name_H-M    'P 1'
loop_
_atom_site_label
_atom_site_type_symbol
_atom_site_fract_x
_atom_site_fract_y
_atom_site_fract_z
_atom_site_occupancy
C1   C   0.587099778601067   0.479452852171683   0.420371299936929   1.0
C2   C   0.510985093881389   0.630569831110178   0.566127286122903   1.0
H3   H   0.301873413431689   0.664208301674599   0.782409237945684   1.0
H4   H   0.565257002151183   0.923748850581440   0.691633813680782   1.0
H5   H   0.583522325190449   0.562852255331814   0.257329087797444   1.0
H6   H   0.485920159486258   0.337368005750192   0.406932695516951   1.0
H7   H   0.756305880696830   0.425328656340516   0.488200582457839   1.0
H8   H   0.720961192491306   0.866473533340423   0.499132358153768   1.0
H9   H   0.289587555256496   0.422163651674764   0.662331569502034   1.0
N13   N   0.360098022570720   0.568333976022539   0.681031550663158   1.0
N14   N   0.598024668192073   0.824280452475327   0.579526130215345   1.0
