data_1
_audit_creation_method   'Generated by vasp2cif'
_cell_length_a    6.24876261468
_cell_length_b    4.31693292241
_cell_length_c    8.6460989996
_cell_angle_alpha    89.9897245648
_cell_angle_beta    95.2578241869
_cell_angle_gamma    101.983823401
_symmetry_space_group_name_H-M    'P 1'
loop_
_atom_site_label
_atom_site_type_symbol
_atom_site_fract_x
_atom_site_fract_y
_atom_site_fract_z
_atom_site_occupancy
C1   C   0.412743271645517   0.871805678198186   0.607268742073479   1.0
C2   C   0.542224177949123   0.820465175135489   0.475699293380394   1.0
H3   H   0.385713597320596   0.080533842946401   0.325580680229208   1.0
H4   H   0.581613190626150   0.910571101445392   0.245318632242565   1.0
H5   H   0.313103933216198   0.644742695481050   0.638504103323321   1.0
H6   H   0.522966440623911   0.966076331913676   0.709768475828412   1.0
H7   H   0.303461495005209   0.032581059165636   0.575024163068655   1.0
H8   H   0.786017648444911   0.601905726251438   0.411547089894896   1.0
H9   H   0.729997255928758   0.558050758847479   0.603120141988406   1.0
N13   N   0.505625442315683   0.952059051421124   0.340443694781726   1.0
N14   N   0.690767757221131   0.640033434600603   0.496244060531445   1.0
