data_1
_audit_creation_method   'Generated by vasp2cif'
_cell_length_a    6.15256494318
_cell_length_b    4.37704103363
_cell_length_c    9.26525911612
_cell_angle_alpha    109.178799424
_cell_angle_beta    82.2138734496
_cell_angle_gamma    92.3630492243
_symmetry_space_group_name_H-M    'P 1'
loop_
_atom_site_label
_atom_site_type_symbol
_atom_site_fract_x
_atom_site_fract_y
_atom_site_fract_z
_atom_site_occupancy
C1   C   0.489685318411546   0.531632715981580   0.641748607900354   1.0
C2   C   0.473877133328585   0.312854903496131   0.481547494653860   1.0
H3   H   0.329209741621035   0.243262751262399   0.285875558001116   1.0
H4   H   0.228487583734733   0.567191430499911   0.446091922643028   1.0
H5   H   0.471224101335622   0.393034515643329   0.721326230468080   1.0
H6   H   0.652082594479879   0.643787382509885   0.646498921276610   1.0
H7   H   0.365587789074247   0.721606634477773   0.678033162758226   1.0
H8   H   0.604635295860987   0.903724824928425   0.314156005781875   1.0
H9   H   0.722257513766728   0.024942697473307   0.485254333926363   1.0
N13   N   0.335989589610783   0.380279671165461   0.398065364265321   1.0
N14   N   0.602062344667893   0.052907521126556   0.424996882798389   1.0
