data_1
_audit_creation_method   'Generated by vasp2cif'
_cell_length_a    8.68430919801
_cell_length_b    4.0199882039
_cell_length_c    6.71045402499
_cell_angle_alpha    87.9233305051
_cell_angle_beta    88.0942777723
_cell_angle_gamma    88.5289246928
_symmetry_space_group_name_H-M    'P 1'
loop_
_atom_site_label
_atom_site_type_symbol
_atom_site_fract_x
_atom_site_fract_y
_atom_site_fract_z
_atom_site_occupancy
C1   C   0.612371341735987   0.938127971873463   0.542594466394867   1.0
C2   C   0.490433531636086   0.754686351448193   0.441581789839226   1.0
H3   H   0.347878100569027   0.740634269450268   0.688359721558200   1.0
H4   H   0.279309806887071   0.528005284702353   0.491446460553625   1.0
H5   H   0.693195658633329   0.756293409951056   0.610632918084221   1.0
H6   H   0.677866463289284   0.094843165701391   0.435894391306590   1.0
H7   H   0.562045848421853   0.087515846624271   0.661765535405216   1.0
H8   H   0.437775129500643   0.536941735168568   0.178283990055299   1.0
H9   H   0.606360585670238   0.759595958199377   0.172979816373321   1.0
N13   N   0.364608911102238   0.666492448941888   0.545799436083882   1.0
N14   N   0.514042800621866   0.671282252060927   0.253732681617038   1.0
