data_1
_audit_creation_method   'Generated by vasp2cif'
_cell_length_a    6.07199496418
_cell_length_b    5.97168314379
_cell_length_c    6.09937476685
_cell_angle_alpha    89.9990126475
_cell_angle_beta    91.5356890259
_cell_angle_gamma    89.9084086044
_symmetry_space_group_name_H-M    'P 1'
loop_
_atom_site_label
_atom_site_type_symbol
_atom_site_fract_x
_atom_site_fract_y
_atom_site_fract_z
_atom_site_occupancy
H4   H   0.543706829213726   0.500014634942275   0.272070603794454   1.0
H5   H   0.644694890312138   0.361272646282598   0.488632984486657   1.0
H6   H   0.640669859384399   0.642133690739570   0.488035536052290   1.0
H7   H   0.242878751658614   0.345144430902131   0.487476285132325   1.0
H8   H   0.349499486363927   0.498584162840688   0.719450957742764   1.0
H9   H   0.237556136933862   0.646018703761839   0.485854058631041   1.0
C10   C   0.327003225985663   0.497295013682818   0.541627809025141   1.0
N12   N   0.552788111097170   0.500428039276576   0.441317454169975   1.0
