data_1
_audit_creation_method   'Generated by vasp2cif'
_cell_length_a    6.05015108181
_cell_length_b    6.03480245442
_cell_length_c    6.10254273474
_cell_angle_alpha    86.9573524446
_cell_angle_beta    85.9140599613
_cell_angle_gamma    92.9568487986
_symmetry_space_group_name_H-M    'P 1'
loop_
_atom_site_label
_atom_site_type_symbol
_atom_site_fract_x
_atom_site_fract_y
_atom_site_fract_z
_atom_site_occupancy
H4   H   0.308481322748719   0.352922332977030   0.477580319692350   1.0
H5   H   0.560265860250865   0.408034382352234   0.346302690033262   1.0
H6   H   0.386086232801517   0.610195001317265   0.368808208642683   1.0
H7   H   0.592915041331437   0.378338549909607   0.742372453933129   1.0
H8   H   0.669454803380596   0.654203114310150   0.629606679289317   1.0
H9   H   0.401118642913524   0.594135597924456   0.770504886599575   1.0
C10   C   0.533484266888664   0.529157745335340   0.665954322836001   1.0
N12   N   0.439891886161632   0.470931166717470   0.450823274651114   1.0
