data_1
_audit_creation_method   'Generated by vasp2cif'
_cell_length_a    6.19125513704
_cell_length_b    4.44576368286
_cell_length_c    7.86935631454
_cell_angle_alpha    100.841861887
_cell_angle_beta    82.7777024972
_cell_angle_gamma    94.1039843688
_symmetry_space_group_name_H-M    'P 1'
loop_
_atom_site_label
_atom_site_type_symbol
_atom_site_fract_x
_atom_site_fract_y
_atom_site_fract_z
_atom_site_occupancy
H4   H   0.307068055925384   0.746955753132937   0.490996474727048   1.0
H5   H   0.567670559422595   0.715580249926347   0.394334277910851   1.0
H6   H   0.409113053692309   0.956634770121227   0.340873337847164   1.0
H7   H   0.560926959248732   0.001988142541798   0.692816069171826   1.0
H8   H   0.668188323118613   0.229494312577785   0.534860373397549   1.0
H9   H   0.391120279403367   0.266713716863315   0.635515341284325   1.0
C10   C   0.522566445876365   0.110999056667602   0.588051722645055   1.0
N12   N   0.445545684629067   0.864914108406424   0.445197543302562   1.0
