data_1
_audit_creation_method   'Generated by vasp2cif'
_cell_length_a    5.99603146751
_cell_length_b    4.33794258061
_cell_length_c    9.19242200995
_cell_angle_alpha    117.952746044
_cell_angle_beta    84.0116229772
_cell_angle_gamma    93.8000807005
_symmetry_space_group_name_H-M    'P 1'
loop_
_atom_site_label
_atom_site_type_symbol
_atom_site_fract_x
_atom_site_fract_y
_atom_site_fract_z
_atom_site_occupancy
H4   H   0.716441290175941   0.339831945261583   0.448512088091254   1.0
H5   H   0.575272825985100   0.613484173983646   0.629222594687253   1.0
H6   H   0.745847637399592   0.768564065790108   0.523596076264051   1.0
H7   H   0.321817606461531   0.355390691678185   0.404121252424177   1.0
H8   H   0.350926625133380   0.817320585237459   0.485924363497771   1.0
H9   H   0.503970899478111   0.534400034312916   0.294238000706025   1.0
C10   C   0.436505985779754   0.569680250489004   0.415586461415832   1.0
N12   N   0.629769578278028   0.571294913272429   0.510233168485285   1.0
