data_1
_audit_creation_method   'Generated by vasp2cif'
_cell_length_a    7.66628655356
_cell_length_b    4.63894426664
_cell_length_c    7.6367089111
_cell_angle_alpha    52.5588718232
_cell_angle_beta    99.3213731822
_cell_angle_gamma    105.396110489
_symmetry_space_group_name_H-M    'P 1'
loop_
_atom_site_label
_atom_site_type_symbol
_atom_site_fract_x
_atom_site_fract_y
_atom_site_fract_z
_atom_site_occupancy
H4   H   0.621180615481027   0.489631260777221   0.551246374056700   1.0
H5   H   0.426174611478465   0.591913549921749   0.413067893545518   1.0
H6   H   0.428007934192517   0.311443635321277   0.693116343806341   1.0
H7   H   0.505517399266955   0.137869532970910   0.401477218717423   1.0
H8   H   0.510736048361595   0.840702834862124   0.698680889841928   1.0
H9   H   0.300752054073591   0.949338517457516   0.555473618114540   1.0
C10   C   0.446890526021212   0.048430538135392   0.551972896613191   1.0
N12   N   0.483195108150969   0.384245350174493   0.552394879130136   1.0
