data_1
_audit_creation_method   'Generated by vasp2cif'
_cell_length_a    6.15374911081
_cell_length_b    6.15009362486
_cell_length_c    6.14848862362
_cell_angle_alpha    96.937383785
_cell_angle_beta    96.0834158669
_cell_angle_gamma    95.8831683364
_symmetry_space_group_name_H-M    'P 1'
loop_
_atom_site_label
_atom_site_type_symbol
_atom_site_fract_x
_atom_site_fract_y
_atom_site_fract_z
_atom_site_occupancy
C1   C   0.301940048444443   0.292316189181712   0.337952642189705   1.0
H2   H   0.088688536300943   0.260951289499744   0.571945960747705   1.0
H3   H   0.083502628020994   0.523936196024152   0.319565026234812   1.0
H4   H   0.545513067101773   0.087937587599143   0.313264694556374   1.0
H5   H   0.542658018280129   0.280556200298094   0.129584016241822   1.0
H6   H   0.275110948232090   0.532054478517132   0.133040580490835   1.0
H7   H   0.285662109588017   0.079342204289020   0.571574602978465   1.0
N11   N   0.216326435281076   0.201024103776888   0.501800207881395   1.0
N12   N   0.211496563841280   0.458549241335667   0.255331067907498   1.0
N13   N   0.475859801776693   0.215353658428988   0.254792183276358   1.0
