data_1
_audit_creation_method   'Generated by vasp2cif'
_cell_length_a    6.10595285505
_cell_length_b    6.10798431848
_cell_length_c    6.12383151016
_cell_angle_alpha    87.1667485088
_cell_angle_beta    93.7476872721
_cell_angle_gamma    85.1398910962
_symmetry_space_group_name_H-M    'P 1'
loop_
_atom_site_label
_atom_site_type_symbol
_atom_site_fract_x
_atom_site_fract_y
_atom_site_fract_z
_atom_site_occupancy
C1   C   0.754899114371675   0.285900839196266   0.634235692490371   1.0
H2   H   0.863603630521936   0.167780767767361   0.349787744062887   1.0
H3   H   0.011102405621656   0.454437270277154   0.535192474433828   1.0
H4   H   0.494394603760242   0.157438790849142   0.773381112612540   1.0
H5   H   0.610308159963054   0.363798387273157   0.916645174750478   1.0
H6   H   0.881120204127967   0.557225512904850   0.758721614186086   1.0
H7   H   0.666190371035640   0.019414785844845   0.468526159603570   1.0
N11   N   0.757856046798096   0.149936863908238   0.469099207047236   1.0
N12   N   0.893946112979734   0.443902591538148   0.643762238875844   1.0
N13   N   0.613101899265516   0.263025319804086   0.790270035481598   1.0
