data_1
_audit_creation_method   'Generated by vasp2cif'
_cell_length_a    9.45294294685
_cell_length_b    4.2590434168
_cell_length_c    6.22687355262
_cell_angle_alpha    76.8361112654
_cell_angle_beta    96.5033541544
_cell_angle_gamma    116.768598207
_symmetry_space_group_name_H-M    'P 1'
loop_
_atom_site_label
_atom_site_type_symbol
_atom_site_fract_x
_atom_site_fract_y
_atom_site_fract_z
_atom_site_occupancy
C1   C   0.467605509380348   0.208492189914182   0.528596224955415   1.0
H2   H   0.370930674327177   0.355763613156150   0.745874280645275   1.0
H3   H   0.574195951503839   0.570207097592387   0.734567838007500   1.0
H4   H   0.604560071380909   0.126864988050485   0.332608967667788   1.0
H5   H   0.709161371075254   0.439065404925287   0.498810891904356   1.0
H6   H   0.225041707455780   0.942445900096502   0.515526880630851   1.0
H7   H   0.323224765529822   0.830977249931415   0.347026648103451   1.0
N11   N   0.470589444629709   0.409639620932765   0.668524408747444   1.0
N12   N   0.328738190721786   0.965794376435333   0.465543340324409   1.0
N13   N   0.603715520045057   0.250321292896516   0.453964214842038   1.0
