data_1
_audit_creation_method   'Generated by vasp2cif'
_cell_length_a    5.7137195249
_cell_length_b    6.18457692566
_cell_length_c    5.93773319812
_cell_angle_alpha    97.8137844027
_cell_angle_beta    76.035539731
_cell_angle_gamma    80.3600826944
_symmetry_space_group_name_H-M    'P 1'
loop_
_atom_site_label
_atom_site_type_symbol
_atom_site_fract_x
_atom_site_fract_y
_atom_site_fract_z
_atom_site_occupancy
H4   H   0.303958008663050   0.541162967365912   0.404414421944772   1.0
H5   H   0.606092023024170   0.563165390077391   0.349543233502592   1.0
H6   H   0.432065075033724   0.623970411437800   0.633431201811574   1.0
H7   H   0.392966487973948   0.231828837141313   0.536623403662405   1.0
N9   N   0.459743408237372   0.524308493087760   0.468868819738627   1.0
