data_1
_audit_creation_method   'Generated by vasp2cif'
_cell_length_a    6.05551783757
_cell_length_b    4.45904226711
_cell_length_c    7.49470969338
_cell_angle_alpha    107.055206697
_cell_angle_beta    86.2307909765
_cell_angle_gamma    92.0735415031
_symmetry_space_group_name_H-M    'P 1'
loop_
_atom_site_label
_atom_site_type_symbol
_atom_site_fract_x
_atom_site_fract_y
_atom_site_fract_z
_atom_site_occupancy
H4   H   0.502111358857270   0.912087499672417   0.372145461378096   1.0
H5   H   0.639323446619677   0.944873877729805   0.570200882811903   1.0
H6   H   0.371818866422608   0.067586507592871   0.589754325133953   1.0
H7   H   0.270579636131245   0.557752674090622   0.448007801538061   1.0
N9   N   0.486215170014717   0.904921043761441   0.511132668827329   1.0
