data_1
_audit_creation_method   'Generated by vasp2cif'
_cell_length_a    7.48849939936
_cell_length_b    4.49370512506
_cell_length_c    6.03214872213
_cell_angle_alpha    90.3583941004
_cell_angle_beta    93.4363621624
_cell_angle_gamma    72.2431407892
_symmetry_space_group_name_H-M    'P 1'
loop_
_atom_site_label
_atom_site_type_symbol
_atom_site_fract_x
_atom_site_fract_y
_atom_site_fract_z
_atom_site_occupancy
H4   H   0.428956734648651   0.373320912261541   0.608728380534785   1.0
H5   H   0.631027911837428   0.209419538395018   0.477005562955675   1.0
H6   H   0.644058136928727   0.321987979336164   0.747639429706076   1.0
H7   H   0.504270660110024   0.955464010472454   0.836551966856014   1.0
N9   N   0.569142410842019   0.231244318350704   0.628313726474325   1.0
