data_1
_audit_creation_method   'Generated by vasp2cif'
_cell_length_a    6.03858534068
_cell_length_b    4.38093207271
_cell_length_c    7.53561587255
_cell_angle_alpha    106.045233955
_cell_angle_beta    84.8320814769
_cell_angle_gamma    94.4938417013
_symmetry_space_group_name_H-M    'P 1'
loop_
_atom_site_label
_atom_site_type_symbol
_atom_site_fract_x
_atom_site_fract_y
_atom_site_fract_z
_atom_site_occupancy
H4   H   0.462494232281569   0.133796348516133   0.500027944760498   1.0
H5   H   0.495965253854464   0.974984874703009   0.674322843024690   1.0
H6   H   0.228875802784841   0.025633322324899   0.628201277774958   1.0
H7   H   0.335796781612352   0.661520897553634   0.333027051279562   1.0
N9   N   0.391047642942965   0.975623316374979   0.571973097076018   1.0
