data_1
_audit_creation_method   'Generated by vasp2cif'
_cell_length_a    7.64144353301
_cell_length_b    4.39294010781
_cell_length_c    6.03706528333
_cell_angle_alpha    86.4214451098
_cell_angle_beta    75.650336869
_cell_angle_gamma    74.6277786366
_symmetry_space_group_name_H-M    'P 1'
loop_
_atom_site_label
_atom_site_type_symbol
_atom_site_fract_x
_atom_site_fract_y
_atom_site_fract_z
_atom_site_occupancy
H4   H   0.426834716558119   0.962906459959342   0.644634396639127   1.0
H5   H   0.585350745829189   0.177160637885429   0.522317030068997   1.0
H6   H   0.473441356235412   0.214255424960335   0.807853290418599   1.0
H7   H   0.659424532104396   0.783501003355745   0.881028806725112   1.0
N9   N   0.530844989472271   0.061694028218397   0.668991649331410   1.0
