data_1
_audit_creation_method   'Generated by vasp2cif'
_cell_length_a    6.0068611804
_cell_length_b    4.50999617423
_cell_length_c    7.27969948477
_cell_angle_alpha    106.528120796
_cell_angle_beta    87.4635120494
_cell_angle_gamma    89.5673117722
_symmetry_space_group_name_H-M    'P 1'
loop_
_atom_site_label
_atom_site_type_symbol
_atom_site_fract_x
_atom_site_fract_y
_atom_site_fract_z
_atom_site_occupancy
H4   H   0.246557926115521   0.111297958286966   0.550996523995117   1.0
H5   H   0.499925489223610   0.105086332605235   0.654100224537381   1.0
H6   H   0.293809296418503   0.885475008080407   0.701531466006221   1.0
H7   H   0.322044751670891   0.607402190750135   0.383956911299381   1.0
N9   N   0.363022424007805   0.978350708152135   0.596349896184498   1.0
