data_1
_audit_creation_method   'Generated by vasp2cif'
_cell_length_a    7.71810576227
_cell_length_b    4.38198742686
_cell_length_c    5.95443441069
_cell_angle_alpha    89.8506289696
_cell_angle_beta    90.7616031469
_cell_angle_gamma    72.900874066
_symmetry_space_group_name_H-M    'P 1'
loop_
_atom_site_label
_atom_site_type_symbol
_atom_site_fract_x
_atom_site_fract_y
_atom_site_fract_z
_atom_site_occupancy
H4   H   0.556603927817001   0.505828919023124   0.287416678740030   1.0
H5   H   0.634869389403455   0.556645186543996   0.547471334186547   1.0
H6   H   0.459748543296911   0.325591302532367   0.695576471010568   1.0
H7   H   0.432588487485255   0.805977240477333   0.454291233809180   1.0
N9   N   0.518084173835234   0.574788439121406   0.451973892541176   1.0
