data_1
_audit_creation_method   'Generated by vasp2cif'
_cell_length_a    6.09579605441
_cell_length_b    6.08708873763
_cell_length_c    6.03117587908
_cell_angle_alpha    82.3834929335
_cell_angle_beta    84.5193289387
_cell_angle_gamma    86.4822713335
_symmetry_space_group_name_H-M    'P 1'
loop_
_atom_site_label
_atom_site_type_symbol
_atom_site_fract_x
_atom_site_fract_y
_atom_site_fract_z
_atom_site_occupancy
N5   N   0.086897836973918   0.747761107286614   0.862126819631179   1.0
N6   N   0.231575404258500   0.933650332344385   0.125002964760988   1.0
H7   H   0.211000979877213   0.627628874937024   0.864583252642326   1.0
H8   H   0.367131883503475   0.828464990227317   0.140630261567061   1.0
H9   H   0.967606628913657   0.743159145191377   0.755798310461152   1.0
H10   H   0.211564643515665   0.057264470452047   0.225124612144867   1.0
H11   H   0.941308255069629   0.029032011075920   0.981893932691378   1.0
C12   C   0.080317509245361   0.908697022493207   0.989191166877980   1.0
