data_1
_audit_creation_method   'Generated by vasp2cif'
_cell_length_a    6.03943978699
_cell_length_b    6.09256624273
_cell_length_c    6.08020888342
_cell_angle_alpha    88.4356906542
_cell_angle_beta    99.1975886517
_cell_angle_gamma    93.1947769179
_symmetry_space_group_name_H-M    'P 1'
loop_
_atom_site_label
_atom_site_type_symbol
_atom_site_fract_x
_atom_site_fract_y
_atom_site_fract_z
_atom_site_occupancy
N5   N   0.141698322136001   0.795673540969865   0.045854274492946   1.0
N6   N   0.864519233768910   0.890104134466952   0.247617114079276   1.0
H7   H   0.173721856544731   0.650599072255716   0.129059097589838   1.0
H8   H   0.879973054423843   0.753629315349997   0.349114652131540   1.0
H9   H   0.237068682112955   0.838026433036049   0.925502790170100   1.0
H10   H   0.750174233263380   0.999988183748791   0.271252875668317   1.0
H11   H   0.970851561215540   0.079979377445611   0.994187561222965   1.0
C12   C   0.991130642582533   0.928601665894270   0.091844102249333   1.0
