data_1
_audit_creation_method   'Generated by vasp2cif'
_cell_length_a    5.96272332676
_cell_length_b    6.35327929708
_cell_length_c    5.99595759714
_cell_angle_alpha    101.111414655
_cell_angle_beta    98.1864658242
_cell_angle_gamma    74.6491242788
_symmetry_space_group_name_H-M    'P 1'
loop_
_atom_site_label
_atom_site_type_symbol
_atom_site_fract_x
_atom_site_fract_y
_atom_site_fract_z
_atom_site_occupancy
N5   N   0.913893763953794   0.686319698219542   0.983092505699638   1.0
N6   N   0.192098849936279   0.865047610889931   0.671498267677968   1.0
H7   H   0.110592475276483   0.807870440035060   0.778367527425381   1.0
H8   H   0.070734249633311   0.982621496358703   0.593658468668956   1.0
H9   H   0.844305943224171   0.551127777414742   0.964664726594499   1.0
H10   H   0.309706945021176   0.945070311295162   0.768860510307150   1.0
H11   H   0.867187589046182   0.022403789779148   0.116862558195628   1.0
C12   C   0.814915045505650   0.867217246962042   0.087437662150542   1.0
