data_1
_audit_creation_method   'Generated by vasp2cif'
_cell_length_a    6.42582271915
_cell_length_b    6.42141612768
_cell_length_c    6.38913944918
_cell_angle_alpha    90.0900815278
_cell_angle_beta    90.5915491949
_cell_angle_gamma    89.7939212151
_symmetry_space_group_name_H-M    'P 1'
loop_
_atom_site_label
_atom_site_type_symbol
_atom_site_fract_x
_atom_site_fract_y
_atom_site_fract_z
_atom_site_occupancy
C1   C   0.306990377031937   0.353266280832301   0.480973478283808   1.0
C2   C   0.598371076725194   0.520291180557088   0.292097232485652   1.0
C3   C   0.593975067239342   0.523206580805684   0.678474967187718   1.0
C4   C   0.340330497945587   0.736107951980692   0.479253450441433   1.0
H5   H   0.452010138936316   0.863260003307680   0.480882175736809   1.0
H6   H   0.245325732683270   0.739532183057626   0.337747410889797   1.0
H7   H   0.212816267772475   0.364536870267550   0.339063395995709   1.0
H8   H   0.500073390839034   0.530502691801040   0.152765392488909   1.0
H9   H   0.492613124007960   0.536750057692963   0.813289674776321   1.0
H10   H   0.702923587616901   0.651968852216719   0.673066870130093   1.0
H11   H   0.706774526947314   0.649730777298196   0.299855032309360   1.0
H12   H   0.243541002212467   0.740786347128989   0.617435929857429   1.0
H13   H   0.676300079352636   0.375032699129079   0.679382838491577   1.0
H14   H   0.394631829951557   0.208013671076735   0.484588694794340   1.0
H15   H   0.681569946513413   0.372493726423656   0.296916258072976   1.0
H16   H   0.210252139475791   0.368279861826124   0.618799219620257   1.0
N20   N   0.459932499994679   0.532546685387913   0.482327063382535   1.0
