data_1
_audit_creation_method   'Generated by vasp2cif'
_cell_length_a    6.37417917571
_cell_length_b    6.46427811885
_cell_length_c    6.41975550239
_cell_angle_alpha    90.052842587
_cell_angle_beta    89.4834379843
_cell_angle_gamma    90.1123813786
_symmetry_space_group_name_H-M    'P 1'
loop_
_atom_site_label
_atom_site_type_symbol
_atom_site_fract_x
_atom_site_fract_y
_atom_site_fract_z
_atom_site_occupancy
C1   C   0.400756131687025   0.359447513756002   0.334996574196040   1.0
C2   C   0.624671587708598   0.590130953118823   0.544946279453519   1.0
C3   C   0.406304119056273   0.321737166466455   0.717558011154040   1.0
C4   C   0.239199804862899   0.629486634409574   0.557052322076444   1.0
H5   H   0.251704345409145   0.708001371095122   0.706438774481811   1.0
H6   H   0.091645466098683   0.545244909781474   0.546831768814094   1.0
H7   H   0.251197082945446   0.278555291226226   0.334575972459412   1.0
H8   H   0.633832280184883   0.671784341644177   0.692726893997367   1.0
H9   H   0.253819204129428   0.246264770562988   0.713264518282543   1.0
H10   H   0.426701144662452   0.405841878507552   0.862923306300559   1.0
H11   H   0.750394174843251   0.477148988348006   0.529982654675294   1.0
H12   H   0.255515032217843   0.739421291963872   0.429758649532175   1.0
H13   H   0.531437989663267   0.209600986622277   0.694970866034588   1.0
H14   H   0.409459528797001   0.471492761351278   0.208634893184239   1.0
H15   H   0.627660944006166   0.698224078518273   0.415522553989092   1.0
H16   H   0.530080545422244   0.250711910730843   0.325879994278040   1.0
N20   N   0.417418928805958   0.475270161633304   0.539313820836497   1.0
