data_1
_audit_creation_method   'Generated by vasp2cif'
_cell_length_a    6.09924246372
_cell_length_b    5.87109244148
_cell_length_c    6.0145966789
_cell_angle_alpha    94.3173099803
_cell_angle_beta    87.0883955272
_cell_angle_gamma    88.8356620347
_symmetry_space_group_name_H-M    'P 1'
loop_
_atom_site_label
_atom_site_type_symbol
_atom_site_fract_x
_atom_site_fract_y
_atom_site_fract_z
_atom_site_occupancy
H4   H   0.286129509827916   0.569788553688127   0.533362256433897   1.0
H5   H   0.516688227911615   0.682670065886562   0.444426274486290   1.0
H6   H   0.487939212529106   0.341344024725629   0.761528970620084   1.0
H7   H   0.716575873595801   0.467041255194012   0.675578529421998   1.0
H8   H   0.521291027161432   0.623236270106553   0.828323097119593   1.0
N10   N   0.449239851185524   0.533535723750170   0.491614619232429   1.0
N11   N   0.548944981314875   0.490279275695130   0.703747661919060   1.0
