data_1
_audit_creation_method   'Generated by vasp2cif'
_cell_length_a    4.19709148525
_cell_length_b    6.22042313248
_cell_length_c    7.90003432847
_cell_angle_alpha    93.3859131538
_cell_angle_beta    107.482795459
_cell_angle_gamma    90.2588584498
_symmetry_space_group_name_H-M    'P 1'
loop_
_atom_site_label
_atom_site_type_symbol
_atom_site_fract_x
_atom_site_fract_y
_atom_site_fract_z
_atom_site_occupancy
H4   H   0.264127370835234   0.495545174141022   0.468139513038160   1.0
H5   H   0.355552563103795   0.708374917275753   0.611405475295878   1.0
H6   H   0.926720061748373   0.490172751843208   0.662599944979951   1.0
H7   H   0.199091454891447   0.285616129028333   0.698049050845125   1.0
H8   H   0.283297076224108   0.506367192999074   0.834713460759895   1.0
N10   N   0.380916722496425   0.544498304474095   0.599046535580569   1.0
N11   N   0.179541915542468   0.451929845417428   0.702975965507993   1.0
