data_1
_audit_creation_method   'Generated by vasp2cif'
_cell_length_a    8.50471115565
_cell_length_b    5.8877112379
_cell_length_c    6.02091468116
_cell_angle_alpha    108.015623182
_cell_angle_beta    46.5328815121
_cell_angle_gamma    116.233543146
_symmetry_space_group_name_H-M    'P 1'
loop_
_atom_site_label
_atom_site_type_symbol
_atom_site_fract_x
_atom_site_fract_y
_atom_site_fract_z
_atom_site_occupancy
H4   H   0.409219632762642   0.615710073405275   0.186725413020208   1.0
H5   H   0.490260530123650   0.644053280627227   0.853146397421857   1.0
H6   H   0.668290798091030   0.436720432304767   0.981016653195455   1.0
H7   H   0.681437299434179   0.328725213584900   0.677375031828810   1.0
H8   H   0.814420719970005   0.639437898503623   0.703527372689631   1.0
N10   N   0.451975300796203   0.521182840926361   0.986544732711980   1.0
N11   N   0.668598872986596   0.481689934692307   0.826772017587491   1.0
