data_1
_audit_creation_method   'Generated by vasp2cif'
_cell_length_a    4.08474205877
_cell_length_b    6.29022629434
_cell_length_c    8.31796290619
_cell_angle_alpha    83.3563295928
_cell_angle_beta    106.571082711
_cell_angle_gamma    113.660808626
_symmetry_space_group_name_H-M    'P 1'
loop_
_atom_site_label
_atom_site_type_symbol
_atom_site_fract_x
_atom_site_fract_y
_atom_site_fract_z
_atom_site_occupancy
H4   H   0.313595149427677   0.459045948830635   0.511081677069626   1.0
H5   H   0.368346630021371   0.698207900676401   0.397307610547472   1.0
H6   H   0.660848233574029   0.463750175328329   0.329751251446986   1.0
H7   H   0.223432130136139   0.262332815210542   0.262325267049754   1.0
H8   H   0.350027422373834   0.525668321230498   0.169990740542993   1.0
N10   N   0.229948351816830   0.521122888405337   0.393183161630176   1.0
N11   N   0.380531058007975   0.437630607190172   0.282945616267412   1.0
