data_1
_audit_creation_method   'Generated by vasp2cif'
_cell_length_a    7.74689850646
_cell_length_b    5.86382391535
_cell_length_c    4.62645061697
_cell_angle_alpha    90.1658850046
_cell_angle_beta    107.142346339
_cell_angle_gamma    75.8479226482
_symmetry_space_group_name_H-M    'P 1'
loop_
_atom_site_label
_atom_site_type_symbol
_atom_site_fract_x
_atom_site_fract_y
_atom_site_fract_z
_atom_site_occupancy
H4   H   0.486142077682111   0.598949657711209   0.456243730957056   1.0
H5   H   0.473986551806277   0.605757113535979   0.802716653529835   1.0
H6   H   0.188800716909341   0.570836911343100   0.457463589258062   1.0
H7   H   0.310226827329956   0.314193724159509   0.358079151311905   1.0
H8   H   0.292792987954847   0.329885432111304   0.707199105188295   1.0
N10   N   0.482954317543289   0.494479254462569   0.632165805998426   1.0
N11   N   0.304860923765851   0.426480411030781   0.530624122749899   1.0
