data_1
_audit_creation_method   'Generated by vasp2cif'
_cell_length_a    8.11419608966
_cell_length_b    4.10695226846
_cell_length_c    5.9789520951
_cell_angle_alpha    89.3884096515
_cell_angle_beta    89.7742498205
_cell_angle_gamma    76.97825757
_symmetry_space_group_name_H-M    'P 1'
loop_
_atom_site_label
_atom_site_type_symbol
_atom_site_fract_x
_atom_site_fract_y
_atom_site_fract_z
_atom_site_occupancy
H4   H   0.564993213894503   0.455559030549388   0.659871328676552   1.0
H5   H   0.578179186691791   0.457736675960881   0.384506706411408   1.0
H6   H   0.289183756198874   0.760813898958567   0.643906716898805   1.0
H7   H   0.416988513404974   0.975896757626685   0.509116126880997   1.0
H8   H   0.298718018900964   0.757869670384942   0.362052990421574   1.0
N10   N   0.498034580527239   0.442976346842641   0.515875803397698   1.0
N11   N   0.368407409323375   0.760561751516022   0.507138084103580   1.0
