data_1
_audit_creation_method   'Generated by vasp2cif'
_cell_length_a    6.20802238602
_cell_length_b    4.19802818653
_cell_length_c    7.84715926725
_cell_angle_alpha    103.834725616
_cell_angle_beta    87.4850477276
_cell_angle_gamma    83.3608279239
_symmetry_space_group_name_H-M    'P 1'
loop_
_atom_site_label
_atom_site_type_symbol
_atom_site_fract_x
_atom_site_fract_y
_atom_site_fract_z
_atom_site_occupancy
H4   H   0.503279587886164   0.894025599140739   0.371519999955195   1.0
H5   H   0.294049945346244   0.007550581812146   0.519526509863210   1.0
H6   H   0.728489951347377   0.160182820546535   0.559990949087475   1.0
H7   H   0.508512720712820   0.438973936818280   0.564834659431221   1.0
H8   H   0.538057557689032   0.242243698848630   0.729993247399926   1.0
N10   N   0.458297948402175   0.929871488217098   0.503070939900792   1.0
N11   N   0.563041474778468   0.215287233803661   0.594737423855644   1.0
