data_1
_audit_creation_method   'Generated by vasp2cif'
_cell_length_a    7.91879714509
_cell_length_b    4.19961132421
_cell_length_c    6.22853742525
_cell_angle_alpha    91.1692560228
_cell_angle_beta    95.1641608605
_cell_angle_gamma    72.041356603
_symmetry_space_group_name_H-M    'P 1'
loop_
_atom_site_label
_atom_site_type_symbol
_atom_site_fract_x
_atom_site_fract_y
_atom_site_fract_z
_atom_site_occupancy
H4   H   0.337534118552443   0.040931151564266   0.521192155753890   1.0
H5   H   0.496393824198992   0.959393221539413   0.721819044906376   1.0
H6   H   0.533863233512922   0.115322245818165   0.286181645057671   1.0
H7   H   0.533053531811735   0.375495343496125   0.497708180248072   1.0
H8   H   0.700489106648868   0.009701267003984   0.481467779057212   1.0
N10   N   0.471442363343648   0.925801829332672   0.559622720426831   1.0
N11   N   0.564204111234330   0.125131218903523   0.450887795888748   1.0
