data_1
_audit_creation_method   'Generated by vasp2cif'
_cell_length_a    5.99171443982
_cell_length_b    5.99442590004
_cell_length_c    6.00422920019
_cell_angle_alpha    83.4166885442
_cell_angle_beta    83.7822071719
_cell_angle_gamma    83.7177914005
_symmetry_space_group_name_H-M    'P 1'
loop_
_atom_site_label
_atom_site_type_symbol
_atom_site_fract_x
_atom_site_fract_y
_atom_site_fract_z
_atom_site_occupancy
N5   N   0.531971774860473   0.532816310562481   0.585040482511907   1.0
H6   H   0.380541795264996   0.627990457263380   0.554313887825536   1.0
H7   H   0.500195112047258   0.383281741841117   0.683629215073104   1.0
H8   H   0.622940740943960   0.497363863242619   0.433532214451965   1.0
H9   H   0.625774453926084   0.623880745190455   0.669534103402825   1.0
