data_1
_audit_creation_method   'Generated by vasp2cif'
_cell_length_a    7.52500076829
_cell_length_b    6.2314861878
_cell_length_c    4.40598990334
_cell_angle_alpha    108.275667813
_cell_angle_beta    105.948070544
_cell_angle_gamma    75.5823430084
_symmetry_space_group_name_H-M    'P 1'
loop_
_atom_site_label
_atom_site_type_symbol
_atom_site_fract_x
_atom_site_fract_y
_atom_site_fract_z
_atom_site_occupancy
N5   N   0.565349200821018   0.478514004186522   0.196977837785248   1.0
H6   H   0.685799085863479   0.468501853958031   0.376852865863370   1.0
H7   H   0.572505267866617   0.326605866553543   0.014022173716263   1.0
H8   H   0.450249145162417   0.495206275549052   0.294741450728942   1.0
H9   H   0.551058142275153   0.616891251267042   0.103290542077097   1.0
