data_1
_audit_creation_method   'Generated by vasp2cif'
_cell_length_a    4.40254936593
_cell_length_b    6.24674466809
_cell_length_c    7.54508380299
_cell_angle_alpha    75.2488221687
_cell_angle_beta    74.0591976723
_cell_angle_gamma    71.7724600381
_symmetry_space_group_name_H-M    'P 1'
loop_
_atom_site_label
_atom_site_type_symbol
_atom_site_fract_x
_atom_site_fract_y
_atom_site_fract_z
_atom_site_occupancy
N5   N   0.798815896198064   0.475871149473455   0.566134284995854   1.0
H6   H   0.618526011708461   0.462979790864637   0.685946068296722   1.0
H7   H   0.982120938873337   0.324493357690393   0.572364179148899   1.0
H8   H   0.701618979759616   0.494992478876064   0.450471326666644   1.0
H9   H   0.891722082893260   0.613778651436661   0.553991163813372   1.0
