data_1
_audit_creation_method   'Generated by vasp2cif'
_cell_length_a    6.32637334305
_cell_length_b    6.26702048105
_cell_length_c    6.258288409
_cell_angle_alpha    94.9508334269
_cell_angle_beta    93.7812018577
_cell_angle_gamma    95.0615793267
_symmetry_space_group_name_H-M    'P 1'
loop_
_atom_site_label
_atom_site_type_symbol
_atom_site_fract_x
_atom_site_fract_y
_atom_site_fract_z
_atom_site_occupancy
C1   C   0.475293006365014   0.329887906617785   0.652553695579108   1.0
C2   C   0.335907616820364   0.623814038978466   0.454689050388978   1.0
C3   C   0.657175583389908   0.455494411969362   0.338184173256060   1.0
H4   H   0.408264378512413   0.389300764743886   0.799625545610809   1.0
H5   H   0.245523590708459   0.656791490147270   0.593186292619954   1.0
H6   H   0.808159314164300   0.405937385713891   0.400566345520247   1.0
H7   H   0.681712098096710   0.592840708561454   0.245545823306436   1.0
H8   H   0.387494964377574   0.771448793329512   0.385346769963618   1.0
H9   H   0.626478212349220   0.632874305159589   0.628158720999934   1.0
H10   H   0.565475155889416   0.321241401976160   0.241359513444046   1.0
H11   H   0.357781322957010   0.219137822939970   0.553857631501231   1.0
H12   H   0.242426780019585   0.512581159442242   0.333217844610189   1.0
H13   H   0.619091910551496   0.253543794130834   0.688014708679241   1.0
N17   N   0.531542101014388   0.519533705190256   0.526633926752403   1.0
