data_1
_audit_creation_method   'Generated by vasp2cif'
_cell_length_a    6.28299112547
_cell_length_b    6.37962376647
_cell_length_c    6.49081913833
_cell_angle_alpha    79.891286282
_cell_angle_beta    86.4047572622
_cell_angle_gamma    93.8488207915
_symmetry_space_group_name_H-M    'P 1'
loop_
_atom_site_label
_atom_site_type_symbol
_atom_site_fract_x
_atom_site_fract_y
_atom_site_fract_z
_atom_site_occupancy
C1   C   0.734405383021887   0.497991918627179   0.566124672562047   1.0
C2   C   0.408369007073588   0.690234274387706   0.609893425050608   1.0
C3   C   0.440526448421565   0.467191686248164   0.331106956898353   1.0
H4   H   0.812329204366392   0.604911754052999   0.656177946404867   1.0
H5   H   0.339073923004264   0.552723642528449   0.724159508528729   1.0
H6   H   0.365978423799355   0.328314954787089   0.440630042859219   1.0
H7   H   0.555035315284101   0.417811346180443   0.219949617754729   1.0
H8   H   0.499236453257012   0.800025002275504   0.688818508995801   1.0
H9   H   0.627615163427947   0.742407658285430   0.351300195406289   1.0
H10   H   0.319565323015944   0.555965528686009   0.249029426878152   1.0
H11   H   0.659573011404589   0.355165380662093   0.669307064499939   1.0
H12   H   0.283791049620149   0.770724974702176   0.525318990433803   1.0
H13   H   0.846463690172662   0.455845490450166   0.448693122692170   1.0
N17   N   0.558655473203110   0.610552994688469   0.455432593445529   1.0
