data_1
_audit_creation_method   'Generated by vasp2cif'
_cell_length_a    6.17531402324
_cell_length_b    6.43616830675
_cell_length_c    6.32824355645
_cell_angle_alpha    91.5519451109
_cell_angle_beta    81.1702449653
_cell_angle_gamma    89.0720542215
_symmetry_space_group_name_H-M    'P 1'
loop_
_atom_site_label
_atom_site_type_symbol
_atom_site_fract_x
_atom_site_fract_y
_atom_site_fract_z
_atom_site_occupancy
C1   C   0.363748356717750   0.591871833276414   0.321022589495172   1.0
C2   C   0.613128879551830   0.789573148054245   0.525847253163668   1.0
C3   C   0.572276316444459   0.412212356747112   0.575445151424944   1.0
H4   H   0.279569282069140   0.737401968467218   0.299895196302572   1.0
H5   H   0.752539997488746   0.753836879350942   0.401589372798391   1.0
H6   H   0.457924774740483   0.285302239226141   0.577390553115471   1.0
H7   H   0.627220631044409   0.432346433581138   0.729983019377038   1.0
H8   H   0.528534832903780   0.930937693970243   0.490409836477248   1.0
H9   H   0.326816791224083   0.637318214801439   0.650322131479719   1.0
H10   H   0.712525355043347   0.385213804631952   0.450116780131523   1.0
H11   H   0.499018352510774   0.562144810641882   0.190714198731563   1.0
H12   H   0.665544053585329   0.802259417574412   0.681869858597040   1.0
H13   H   0.250951176804740   0.463208497660780   0.333776593420211   1.0
N17   N   0.457529689513663   0.610575441356154   0.527827620572538   1.0
