data_1
_audit_creation_method   'Generated by vasp2cif'
_cell_length_a    4.63202654777
_cell_length_b    7.96461721214
_cell_length_c    7.43386593264
_cell_angle_alpha    102.980141634
_cell_angle_beta    74.8251545592
_cell_angle_gamma    87.8992667133
_symmetry_space_group_name_H-M    'P 1'
loop_
_atom_site_label
_atom_site_type_symbol
_atom_site_fract_x
_atom_site_fract_y
_atom_site_fract_z
_atom_site_occupancy
C1   C   0.503454873841058   0.574795619284195   0.372970384981251   1.0
C2   C   0.731012625092866   0.781281787357763   0.590730962190193   1.0
C3   C   0.706515720464786   0.471733818915304   0.613161414251984   1.0
H4   H   0.398392009053403   0.687262685046377   0.344953089798871   1.0
H5   H   0.931488079872516   0.756914129881743   0.469498746241236   1.0
H6   H   0.561830698232441   0.367005433659493   0.607846250174887   1.0
H7   H   0.738845064036305   0.511659084294088   0.755982328044446   1.0
H8   H   0.590264833943024   0.893137658979533   0.589400916737119   1.0
H9   H   0.352849863336615   0.657981689163726   0.675647606917451   1.0
H10   H   0.921855224863826   0.431260298017918   0.504970415627234   1.0
H11   H   0.720742578718450   0.534703348732393   0.266283251116448   1.0
H12   H   0.787797488687495   0.801116340091255   0.726613769803919   1.0
H13   H   0.363476496844797   0.467934639346083   0.367804665261957   1.0
N17   N   0.556560053135570   0.624110862548619   0.569703135907865   1.0
