data_1
_audit_creation_method   'Generated by vasp2cif'
_cell_length_a    6.04245990791
_cell_length_b    4.66610413978
_cell_length_c    9.08289376406
_cell_angle_alpha    94.0098303253
_cell_angle_beta    85.0006881511
_cell_angle_gamma    84.8196967464
_symmetry_space_group_name_H-M    'P 1'
loop_
_atom_site_label
_atom_site_type_symbol
_atom_site_fract_x
_atom_site_fract_y
_atom_site_fract_z
_atom_site_occupancy
C1   C   0.299321477694185   0.568007232242891   0.490284694156429   1.0
C2   C   0.630631394717184   0.847770020823305   0.488143541655767   1.0
C3   C   0.564521928665776   0.529930395833226   0.690895668622034   1.0
H4   H   0.208960803386553   0.730607488058205   0.431742718247136   1.0
H5   H   0.549969497295891   0.995997091796220   0.417697164254868   1.0
H6   H   0.439165632661741   0.414088739767671   0.749007834286161   1.0
H7   H   0.639637258545662   0.667798715513996   0.770256327058355   1.0
H8   H   0.739354437865643   0.953783105175866   0.559433737204962   1.0
H9   H   0.354334172496429   0.883298485050702   0.649508876736114   1.0
H10   H   0.692704729820832   0.381846278661300   0.627279613937645   1.0
H11   H   0.399388639279742   0.414277849122136   0.409903688010466   1.0
H12   H   0.725453831509576   0.670332443816775   0.419000652076981   1.0
H13   H   0.184645533121028   0.460990573630077   0.562353617503270   1.0
N17   N   0.454384705876492   0.720184324970269   0.584779280834951   1.0
