data_1
_audit_creation_method   'Generated by vasp2cif'
_cell_length_a    6.27815178609
_cell_length_b    6.12195586779
_cell_length_c    6.19986729521
_cell_angle_alpha    89.9809484068
_cell_angle_beta    89.5210197446
_cell_angle_gamma    89.1904257923
_symmetry_space_group_name_H-M    'P 1'
loop_
_atom_site_label
_atom_site_type_symbol
_atom_site_fract_x
_atom_site_fract_y
_atom_site_fract_z
_atom_site_occupancy
H4   H   0.370976949057770   0.834015477338667   0.566192295138642   1.0
H5   H   0.672746026621859   0.570158806073366   0.303997453065172   1.0
H6   H   0.638706962852893   0.851897513244460   0.559325798649525   1.0
H7   H   0.338839720255969   0.315125842967653   0.565643067871946   1.0
H8   H   0.683307743700439   0.568006096061850   0.809008646856874   1.0
H9   H   0.401679784566170   0.585322073043663   0.857446098136812   1.0
H10   H   0.389364698053747   0.587989746475344   0.273043109497451   1.0
H11   H   0.619025377541732   0.261314914615483   0.557376216760311   1.0
C12   C   0.526345058719919   0.565255023593991   0.736503193125067   1.0
C13   C   0.519131460329717   0.566832078561006   0.386002342281380   1.0
C14   C   0.496154023691695   0.388459657667404   0.561397993784624   1.0
N16   N   0.512462976264509   0.746154192769737   0.562240094033484   1.0
