data_1
_audit_creation_method   'Generated by vasp2cif'
_cell_length_a    6.20215063122
_cell_length_b    6.22583651367
_cell_length_c    6.13354619777
_cell_angle_alpha    93.163381764
_cell_angle_beta    90.0363581492
_cell_angle_gamma    94.1454974532
_symmetry_space_group_name_H-M    'P 1'
loop_
_atom_site_label
_atom_site_type_symbol
_atom_site_fract_x
_atom_site_fract_y
_atom_site_fract_z
_atom_site_occupancy
H4   H   0.451458313810009   0.435727212102707   0.207968795957642   1.0
H5   H   0.790122743937028   0.650942024202287   0.495387304324842   1.0
H6   H   0.522188827469752   0.701640296794702   0.228422169914576   1.0
H7   H   0.454592841154281   0.339474131852634   0.708677525990619   1.0
H8   H   0.307028898754787   0.760969081412635   0.534663970499548   1.0
H9   H   0.181780820928680   0.495609815591162   0.476227272174016   1.0
H10   H   0.742028469042043   0.367266183851842   0.430027693904810   1.0
H11   H   0.537596538205333   0.607009079568050   0.808981080227134   1.0
C12   C   0.333401524573964   0.590798834547047   0.507646643767500   1.0
C13   C   0.669369736297828   0.515363973218035   0.479906093563591   1.0
C14   C   0.498263368933663   0.503738910191522   0.663425492588524   1.0
N16   N   0.492948208932875   0.565251200645207   0.315224458860382   1.0
