data_1
_audit_creation_method   'Generated by vasp2cif'
_cell_length_a    6.19090225087
_cell_length_b    6.16001072355
_cell_length_c    6.21213475003
_cell_angle_alpha    87.1206812908
_cell_angle_beta    83.77561629
_cell_angle_gamma    93.1461140223
_symmetry_space_group_name_H-M    'P 1'
loop_
_atom_site_label
_atom_site_type_symbol
_atom_site_fract_x
_atom_site_fract_y
_atom_site_fract_z
_atom_site_occupancy
H4   H   0.370598513489384   0.809899160930343   0.703860094928466   1.0
H5   H   0.396498582844963   0.650716481599268   0.275789614005042   1.0
H6   H   0.574243274470888   0.877557512495791   0.507907091404810   1.0
H7   H   0.488882788990928   0.259116002882713   0.557061848852193   1.0
H8   H   0.788738783595370   0.628741491783160   0.674865531688063   1.0
H9   H   0.550832441933572   0.518476903631168   0.843217431768650   1.0
H10   H   0.218770806625152   0.537086159747922   0.505403644116257   1.0
H11   H   0.687228445910648   0.410237883968918   0.370246944165430   1.0
C12   C   0.619599338713961   0.570895018545855   0.678979390989866   1.0
C13   C   0.386463488036121   0.583964811949343   0.441669421505722   1.0
C14   C   0.555916552282063   0.421376562879431   0.500128350365443   1.0
N16   N   0.481435451704343   0.749771323529671   0.590585526754680   1.0
