data_1
_audit_creation_method   'Generated by vasp2cif'
_cell_length_a    8.49641139657
_cell_length_b    6.16919554384
_cell_length_c    4.69499231441
_cell_angle_alpha    90.3167381306
_cell_angle_beta    83.8442161884
_cell_angle_gamma    89.8613857893
_symmetry_space_group_name_H-M    'P 1'
loop_
_atom_site_label
_atom_site_type_symbol
_atom_site_fract_x
_atom_site_fract_y
_atom_site_fract_z
_atom_site_occupancy
H4   H   0.598341894869115   0.012517518429640   0.076997006563907   1.0
H5   H   0.325952450060065   0.292746746608316   0.003058316874274   1.0
H6   H   0.328138895771680   0.018762089947401   0.001042034306110   1.0
H7   H   0.387760626592410   0.010238058827660   0.507132674949382   1.0
H8   H   0.382783018504888   0.301328236898584   0.509347703114592   1.0
H9   H   0.671066467329453   0.308317977375559   0.562734498848421   1.0
H10   H   0.676648855539540   0.021033008057728   0.556143224195175   1.0
H11   H   0.595162597241469   0.304618656067390   0.083482426496701   1.0
C12   C   0.431533992763896   0.157266275628302   0.600777418822716   1.0
C13   C   0.566251406266730   0.158955720730404   0.968889110349792   1.0
C14   C   0.610262252999853   0.162114067632615   0.641522294542256   1.0
N16   N   0.387938714302116   0.156385856312383   0.926621754229629   1.0
