data_1
_audit_creation_method   'Generated by vasp2cif'
_cell_length_a    8.39973604994
_cell_length_b    6.12422699005
_cell_length_c    4.68762977558
_cell_angle_alpha    93.4943129649
_cell_angle_beta    84.4168896736
_cell_angle_gamma    86.5278481039
_symmetry_space_group_name_H-M    'P 1'
loop_
_atom_site_label
_atom_site_type_symbol
_atom_site_fract_x
_atom_site_fract_y
_atom_site_fract_z
_atom_site_occupancy
H4   H   0.406714799054768   0.995612492385973   0.935351711702999   1.0
H5   H   0.599872889983814   0.365422622921734   0.033937611291883   1.0
H6   H   0.663020781582588   0.099622696520363   0.039528481362275   1.0
H7   H   0.639925571385668   0.143293782166204   0.537648328882142   1.0
H8   H   0.513037988457157   0.389922170410273   0.529243724199745   1.0
H9   H   0.278252625869264   0.155079843327904   0.533258809832610   1.0
H10   H   0.409699908777021   0.915964520096303   0.442189007270670   1.0
H11   H   0.324848245237121   0.271411463548731   0.033811478353925   1.0
C12   C   0.538921440348176   0.220441567629202   0.444198239578988   1.0
C13   C   0.403413623827397   0.136019846883002   0.088842195189947   1.0
C14   C   0.388846530472662   0.089737541808681   0.409295861339146   1.0
N16   N   0.573129990549404   0.217186106795644   0.115728240591110   1.0
