data_1
_audit_creation_method   'Generated by vasp2cif'
_cell_length_a    8.38421776361
_cell_length_b    6.14472880617
_cell_length_c    4.67897242002
_cell_angle_alpha    88.9809345253
_cell_angle_beta    97.5342615547
_cell_angle_gamma    86.1669549887
_symmetry_space_group_name_H-M    'P 1'
loop_
_atom_site_label
_atom_site_type_symbol
_atom_site_fract_x
_atom_site_fract_y
_atom_site_fract_z
_atom_site_occupancy
H4   H   0.655463297142774   0.172661422383854   0.149194205806303   1.0
H5   H   0.311306518414696   0.117341314429503   0.934740184043257   1.0
H6   H   0.461058791910745   0.919904842413239   0.013809420252322   1.0
H7   H   0.530179292424194   0.944393609729467   0.547060207944838   1.0
H8   H   0.356868310809404   0.135346304185170   0.464141645721568   1.0
H9   H   0.527948952072698   0.442955127223257   0.602702545152077   1.0
H10   H   0.702029910930904   0.256047314092079   0.653177501491058   1.0
H11   H   0.491834802024229   0.381806630662361   0.111585131826651   1.0
C12   C   0.468651117908521   0.095155441194351   0.607221438871612   1.0
C13   C   0.551568508963534   0.247811750436036   0.010175356340753   1.0
C14   C   0.577501119504028   0.284411225083581   0.693160637746985   1.0
N16   N   0.431111406629974   0.072201419966746   0.918848541493304   1.0
