data_1
_audit_creation_method   'Generated by vasp2cif'
_cell_length_a    6.07420822444
_cell_length_b    4.39659900595
_cell_length_c    8.81512393765
_cell_angle_alpha    86.2196047822
_cell_angle_beta    91.0140017957
_cell_angle_gamma    92.9238485614
_symmetry_space_group_name_H-M    'P 1'
loop_
_atom_site_label
_atom_site_type_symbol
_atom_site_fract_x
_atom_site_fract_y
_atom_site_fract_z
_atom_site_occupancy
H4   H   0.044910185408646   0.165032603849987   0.498946612480992   1.0
H5   H   0.327291836515144   0.333146462872925   0.326744882914085   1.0
H6   H   0.371429069936298   0.655582624372109   0.411194348799889   1.0
H7   H   0.597511544412811   0.093306709783896   0.478428965943607   1.0
H8   H   0.646564116305193   0.438096137364965   0.572307760643241   1.0
H9   H   0.366872189568895   0.273476729952186   0.764076329927619   1.0
H10   H   0.317376627047487   0.923535305029681   0.679590165306045   1.0
H11   H   0.087862669598650   0.512738411695736   0.591965153024056   1.0
C12   C   0.521651953228933   0.270244828472258   0.537470579041184   1.0
C13   C   0.166473614615882   0.318499964766083   0.550299723510619   1.0
C14   C   0.342764537710437   0.169106424731929   0.655875028190984   1.0
N16   N   0.346201327524064   0.424597125172767   0.432546156641358   1.0
