data_1
_audit_creation_method   'Generated by vasp2cif'
_cell_length_a    8.95258088905
_cell_length_b    4.49006558169
_cell_length_c    6.27687439419
_cell_angle_alpha    103.079702371
_cell_angle_beta    90.2575959492
_cell_angle_gamma    76.5335390622
_symmetry_space_group_name_H-M    'P 1'
loop_
_atom_site_label
_atom_site_type_symbol
_atom_site_fract_x
_atom_site_fract_y
_atom_site_fract_z
_atom_site_occupancy
H4   H   0.446725846674134   0.519154829825297   0.270447461625274   1.0
H5   H   0.652044411287534   0.699410143977900   0.471539348222734   1.0
H6   H   0.654196264482763   0.951166231999800   0.315045496322412   1.0
H7   H   0.430146420961030   0.042345812357986   0.684925765373805   1.0
H8   H   0.476848848001666   0.340417524017702   0.572329368725384   1.0
H9   H   0.306167140100001   0.207212638073535   0.254708358146559   1.0
H10   H   0.231675955406303   0.988545205832054   0.412515628171363   1.0
H11   H   0.494212549784876   0.712023720001390   0.070610313835715   1.0
C12   C   0.450520697283380   0.110300015471310   0.534190291421112   1.0
C13   C   0.461336343421451   0.739943401917621   0.241341440098225   1.0
C14   C   0.336598436961481   0.034472331099742   0.354804072573032   1.0
N16   N   0.582246180333563   0.856673446882759   0.394597402141329   1.0
