data_1
_audit_creation_method   'Generated by vasp2cif'
_cell_length_a    8.6071279949
_cell_length_b    4.68763788723
_cell_length_c    6.21212291243
_cell_angle_alpha    78.6975924227
_cell_angle_beta    88.5496435356
_cell_angle_gamma    101.755348644
_symmetry_space_group_name_H-M    'P 1'
loop_
_atom_site_label
_atom_site_type_symbol
_atom_site_fract_x
_atom_site_fract_y
_atom_site_fract_z
_atom_site_occupancy
H4   H   0.597250216203804   0.616925754083624   0.642107947415965   1.0
H5   H   0.352906928823309   0.726315276320669   0.486314528650645   1.0
H6   H   0.324447318604264   0.906289095071592   0.685665812690779   1.0
H7   H   0.574412722488979   0.113520489050629   0.319231157941374   1.0
H8   H   0.475150928333470   0.337259699648811   0.451750049282808   1.0
H9   H   0.628589791663202   0.205346698511967   0.796335217406558   1.0
H10   H   0.766371295685957   0.115158315119665   0.614607850432023   1.0
H11   H   0.505203385734170   0.661164129511228   0.893728837181733   1.0
C12   C   0.529421327785691   0.144588834523986   0.476132169615980   1.0
C13   C   0.545079864970617   0.762431969323437   0.723534679148891   1.0
C14   C   0.641353316933390   0.086680929413944   0.664745230796619   1.0
N16   N   0.410164221155910   0.858901146369000   0.586653417778081   1.0
