data_1
_audit_creation_method   'Generated by vasp2cif'
_cell_length_a    8.24887191931
_cell_length_b    6.31682711524
_cell_length_c    4.68114363215
_cell_angle_alpha    90.660695035
_cell_angle_beta    89.4420000404
_cell_angle_gamma    83.4224764407
_symmetry_space_group_name_H-M    'P 1'
loop_
_atom_site_label
_atom_site_type_symbol
_atom_site_fract_x
_atom_site_fract_y
_atom_site_fract_z
_atom_site_occupancy
H4   H   0.436246203374944   0.847622654993779   0.899732391164414   1.0
H5   H   0.421811833023474   0.315995316568950   0.973933042273563   1.0
H6   H   0.592952276704552   0.139945865329368   0.974618487865095   1.0
H7   H   0.549757894502900   0.054459547856705   0.454287322975402   1.0
H8   H   0.402212325596024   0.288243365561602   0.466727117371691   1.0
H9   H   0.183230112379773   0.075892928509065   0.322286261556098   1.0
H10   H   0.318642942888142   0.837282018833343   0.389073671876513   1.0
H11   H   0.267257452585387   0.046548705107304   0.820702785166288   1.0
C12   C   0.440070345715845   0.136616762291193   0.360470859147366   1.0
C13   C   0.360993254589107   0.991523055135889   0.972193990623892   1.0
C14   C   0.305749254111711   0.992554258239178   0.287947649169367   1.0
N16   N   0.471715876360265   0.167617042883740   0.040812006961640   1.0
