data_1
_audit_creation_method   'Generated by vasp2cif'
_cell_length_a    8.6130708462
_cell_length_b    6.08096101827
_cell_length_c    4.71600692942
_cell_angle_alpha    92.1746958975
_cell_angle_beta    99.8694828193
_cell_angle_gamma    81.7180730953
_symmetry_space_group_name_H-M    'P 1'
loop_
_atom_site_label
_atom_site_type_symbol
_atom_site_fract_x
_atom_site_fract_y
_atom_site_fract_z
_atom_site_occupancy
H4   H   0.299542561435871   0.067672824357303   0.696599068788331   1.0
H5   H   0.490604471388018   0.431240530592842   0.793325740561308   1.0
H6   H   0.564644381737371   0.156345274127475   0.791735044859692   1.0
H7   H   0.619334157903017   0.170287319647476   0.291699128489035   1.0
H8   H   0.488828894067958   0.431706183236363   0.288597679871356   1.0
H9   H   0.264273357343704   0.215050735364949   0.292350106885518   1.0
H10   H   0.384287908881888   0.964741586252630   0.206488556258355   1.0
H11   H   0.228903841931911   0.348301217462147   0.798482489849494   1.0
C12   C   0.504649259594584   0.262998294967071   0.200493379267664   1.0
C13   C   0.317308782648846   0.202943552326739   0.849921010997563   1.0
C14   C   0.355331993991842   0.142866610230397   0.170366520627450   1.0
N16   N   0.484544176481092   0.276256744188930   0.870766013995204   1.0
