data_1
_audit_creation_method   'Generated by vasp2cif'
_cell_length_a    6.11904909649
_cell_length_b    6.55919339146
_cell_length_c    6.12895141777
_cell_angle_alpha    89.5731008879
_cell_angle_beta    80.401406755
_cell_angle_gamma    90.3318912706
_symmetry_space_group_name_H-M    'P 1'
loop_
_atom_site_label
_atom_site_type_symbol
_atom_site_fract_x
_atom_site_fract_y
_atom_site_fract_z
_atom_site_occupancy
H4   H   0.559647375546810   0.040699156743749   0.784792012774865   1.0
H5   H   0.319134341496060   0.886560893859247   0.525497418110490   1.0
H6   H   0.260964209342745   0.528013663794944   0.492540684271965   1.0
H7   H   0.546947509375556   0.428496475473381   0.786773086371035   1.0
H8   H   0.140594086506233   0.187530012321488   0.353545572970297   1.0
C9   C   0.457493339475114   0.335200909455466   0.688659294733959   1.0
C10   C   0.341652799862636   0.045233390814047   0.556589699892740   1.0
C11   C   0.317474485552751   0.384111474699395   0.544798929278841   1.0
N13   N   0.469352867342671   0.124746556458902   0.692476070216017   1.0
N14   N   0.247699093941463   0.201479754601913   0.464745607071912   1.0
