data_1
_audit_creation_method   'Generated by vasp2cif'
_cell_length_a    6.17352070391
_cell_length_b    6.32407592957
_cell_length_c    6.21021296289
_cell_angle_alpha    96.0991610141
_cell_angle_beta    81.7603364342
_cell_angle_gamma    84.1598282993
_symmetry_space_group_name_H-M    'P 1'
loop_
_atom_site_label
_atom_site_type_symbol
_atom_site_fract_x
_atom_site_fract_y
_atom_site_fract_z
_atom_site_occupancy
H4   H   0.408577636794729   0.038830331852712   0.333615629244806   1.0
H5   H   0.652609108354111   0.001762612450146   0.629656741992081   1.0
H6   H   0.776188463239061   0.569625494333545   0.350055825035785   1.0
H7   H   0.465454612139611   0.372023730062893   0.141015629143748   1.0
H8   H   0.869292273028276   0.321337739740812   0.635784393940895   1.0
C9   C   0.550468013337288   0.329098652106996   0.272049648834070   1.0
C10   C   0.644103993193128   0.127171856134829   0.525529606091857   1.0
C11   C   0.702313629021929   0.425736222300095   0.374788921597174   1.0
N13   N   0.517033512349756   0.144687265276231   0.368991383676367   1.0
N14   N   0.758104146794555   0.296745707366444   0.531132148761353   1.0
