data_1
_audit_creation_method   'Generated by vasp2cif'
_cell_length_a    6.20046924477
_cell_length_b    6.19936783197
_cell_length_c    6.30691158634
_cell_angle_alpha    96.4378345172
_cell_angle_beta    96.4449565774
_cell_angle_gamma    97.0885602814
_symmetry_space_group_name_H-M    'P 1'
loop_
_atom_site_label
_atom_site_type_symbol
_atom_site_fract_x
_atom_site_fract_y
_atom_site_fract_z
_atom_site_occupancy
H4   H   0.192268514456664   0.443954932065537   0.644223029234666   1.0
H5   H   0.421459697909690   0.138172676939547   0.708858576132300   1.0
H6   H   0.603534267110270   0.401129067527485   0.151711342866982   1.0
H7   H   0.285373284797707   0.628872037521873   0.315015743062247   1.0
H8   H   0.665644681902918   0.116573321591957   0.411344119280883   1.0
C9   C   0.360422428636227   0.494043303970166   0.367741511245633   1.0
C10   C   0.426162598187552   0.239225921971865   0.580804439415203   1.0
C11   C   0.516586861545278   0.382576048211064   0.288127557916404   1.0
N13   N   0.306618190003597   0.401290412840758   0.548483339637940   1.0
N14   N   0.554528689787666   0.225215241529718   0.423517792193081   1.0
