data_1
_audit_creation_method   'Generated by vasp2cif'
_cell_length_a    9.11266689811
_cell_length_b    4.26895134579
_cell_length_c    6.08522029527
_cell_angle_alpha    100.22807664
_cell_angle_beta    93.9578583756
_cell_angle_gamma    90.304803779
_symmetry_space_group_name_H-M    'P 1'
loop_
_atom_site_label
_atom_site_type_symbol
_atom_site_fract_x
_atom_site_fract_y
_atom_site_fract_z
_atom_site_occupancy
H4   H   0.289713367091191   0.835951494146154   0.396330354686594   1.0
H5   H   0.563369262237770   0.342912598966513   0.769907207286829   1.0
H6   H   0.727369917466768   0.530733241755580   0.494719004767228   1.0
H7   H   0.543939144695935   0.871037433723905   0.242349852932905   1.0
H8   H   0.294922882246674   0.513530021977093   0.711785247425628   1.0
C9   C   0.611860045039177   0.580026143746684   0.500500624804532   1.0
C10   C   0.521829543987548   0.747974407813157   0.376667451861475   1.0
C11   C   0.386247486743060   0.568894787358425   0.622153669535734   1.0
N13   N   0.524899441251633   0.470956410981733   0.651195567431366   1.0
N14   N   0.383019693196684   0.739602701092125   0.457156922226801   1.0
