data_1
_audit_creation_method   'Generated by vasp2cif'
_cell_length_a    6.15501626065
_cell_length_b    4.30579553955
_cell_length_c    9.01052955481
_cell_angle_alpha    93.6712510375
_cell_angle_beta    92.3948192328
_cell_angle_gamma    98.6637704376
_symmetry_space_group_name_H-M    'P 1'
loop_
_atom_site_label
_atom_site_type_symbol
_atom_site_fract_x
_atom_site_fract_y
_atom_site_fract_z
_atom_site_occupancy
H4   H   0.421798089008540   0.950199527718335   0.733887911807205   1.0
H5   H   0.756979560160147   0.736347519321953   0.369099611878639   1.0
H6   H   0.483198499761482   0.080151358945737   0.273366209720414   1.0
H7   H   0.246075640352354   0.217370475137328   0.520373450912135   1.0
H8   H   0.725428644047128   0.655838345891143   0.645862586765538   1.0
C9   C   0.494831123198738   0.017158192320944   0.386707607762563   1.0
C10   C   0.379599922641252   0.084864999871328   0.507840780757827   1.0
C11   C   0.628226047370797   0.788626966059621   0.579173506126830   1.0
N13   N   0.647629446919423   0.832564653250848   0.433887325424780   1.0
N14   N   0.465645635126103   0.940131525397687   0.625863772616605   1.0
