data_1
_audit_creation_method   'Generated by vasp2cif'
_cell_length_a    6.5119542446
_cell_length_b    6.45795084751
_cell_length_c    6.71983562584
_cell_angle_alpha    83.7300407047
_cell_angle_beta    88.7114113531
_cell_angle_gamma    93.4068129472
_symmetry_space_group_name_H-M    'P 1'
loop_
_atom_site_label
_atom_site_type_symbol
_atom_site_fract_x
_atom_site_fract_y
_atom_site_fract_z
_atom_site_occupancy
C1   C   0.471621716524709   0.577816065678263   0.339352308886987   1.0
C2   C   0.543921252270842   0.415235240903861   0.210054948515335   1.0
H3   H   0.708523361267069   0.440414504344659   0.171415459061244   1.0
H4   H   0.458858862688146   0.426520098044847   0.071414691228227   1.0
H5   H   0.574412396240874   0.420740317332580   0.611601065167847   1.0
H6   H   0.543175386413886   0.675624228385054   0.624783802931987   1.0
H7   H   0.514210111131149   0.256930720419810   0.285765673567724   1.0
H8   H   0.498638426824755   0.737179861539495   0.266443651589505   1.0
H9   H   0.309295005242760   0.551474281505108   0.384781522586991   1.0
H10   H   0.746841543582235   0.603435656215815   0.502823258453176   1.0
N14   N   0.591524325768354   0.568114578878493   0.532529318723618   1.0
