data_1
_audit_creation_method   'Generated by vasp2cif'
_cell_length_a    6.58964494559
_cell_length_b    6.38965885196
_cell_length_c    6.7092323143
_cell_angle_alpha    86.5151140399
_cell_angle_beta    83.3408403879
_cell_angle_gamma    88.3166692624
_symmetry_space_group_name_H-M    'P 1'
loop_
_atom_site_label
_atom_site_type_symbol
_atom_site_fract_x
_atom_site_fract_y
_atom_site_fract_z
_atom_site_occupancy
C1   C   0.569800867210371   0.771261639906734   0.303557909405653   1.0
C2   C   0.555544686526957   0.597057605955877   0.161215776016227   1.0
H3   H   0.707118173690170   0.546887089041108   0.094046938570203   1.0
H4   H   0.467141548917639   0.655054248172966   0.040296346372009   1.0
H5   H   0.619526966172349   0.562739631930848   0.556174886010000   1.0
H6   H   0.691368732533973   0.808935685382061   0.578919430954049   1.0
H7   H   0.477232316139286   0.460836591809286   0.238335959580536   1.0
H8   H   0.652772189829675   0.906392379715576   0.231647858754507   1.0
H9   H   0.420045256422543   0.824486519016463   0.371323163185644   1.0
H10   H   0.835659598672305   0.649243594774628   0.430140223807944   1.0
N14   N   0.686904075920434   0.692526260498454   0.478313468466633   1.0
