data_1
_audit_creation_method   'Generated by vasp2cif'
_cell_length_a    8.97005336856
_cell_length_b    4.65141764453
_cell_length_c    6.59397347222
_cell_angle_alpha    83.1013709318
_cell_angle_beta    91.9140306595
_cell_angle_gamma    88.0504155218
_symmetry_space_group_name_H-M    'P 1'
loop_
_atom_site_label
_atom_site_type_symbol
_atom_site_fract_x
_atom_site_fract_y
_atom_site_fract_z
_atom_site_occupancy
C1   C   0.466951089768472   0.542193215487323   0.423485259330533   1.0
C2   C   0.416761347532678   0.710907694867650   0.595197620054606   1.0
H3   H   0.393830803047258   0.565363563814429   0.732704186495766   1.0
H4   H   0.502117251174312   0.858149233011261   0.637424384095958   1.0
H5   H   0.619584715476776   0.264387570331394   0.620876466543933   1.0
H6   H   0.703148698001165   0.534672190256011   0.489723546626649   1.0
H7   H   0.389181731551851   0.375001164110842   0.393840235612117   1.0
H8   H   0.314147958090899   0.837197038142982   0.546116311017691   1.0
H9   H   0.481073372463541   0.681489163737126   0.280362003960029   1.0
H10   H   0.648898970544458   0.259694899116241   0.368508002503774   1.0
N14   N   0.618173664454282   0.388797557834998   0.479345467878375   1.0
