data_1
_audit_creation_method   'Generated by vasp2cif'
_cell_length_a    6.62561132011
_cell_length_b    4.69853098172
_cell_length_c    8.9135184019
_cell_angle_alpha    94.2968738215
_cell_angle_beta    95.8632273873
_cell_angle_gamma    94.0155896449
_symmetry_space_group_name_H-M    'P 1'
loop_
_atom_site_label
_atom_site_type_symbol
_atom_site_fract_x
_atom_site_fract_y
_atom_site_fract_z
_atom_site_occupancy
C1   C   0.411702359047872   0.817093509841840   0.607507887132890   1.0
C2   C   0.561226110358348   0.612928222814325   0.551211478577628   1.0
H3   H   0.483369361612120   0.439689533535102   0.472827008369968   1.0
H4   H   0.669717716421779   0.731317955620597   0.490011224034795   1.0
H5   H   0.183354993432594   0.490130277935115   0.635235960701827   1.0
H6   H   0.156229638238202   0.798253409118793   0.735187500643512   1.0
H7   H   0.488554820561419   0.994299459696151   0.683200940355285   1.0
H8   H   0.646807231915837   0.521982460989726   0.645417712123326   1.0
H9   H   0.320008840614690   0.901396561822601   0.514597016714667   1.0
H10   H   0.336682862634454   0.593849748867676   0.797198014974619   1.0
N14   N   0.262705425573039   0.662979123370377   0.699323167040433   1.0
