data_1
_audit_creation_method   'Generated by vasp2cif'
_cell_length_a    6.64762692317
_cell_length_b    4.68267266547
_cell_length_c    9.8022429132
_cell_angle_alpha    64.3892345325
_cell_angle_beta    94.5653925144
_cell_angle_gamma    96.1447292009
_symmetry_space_group_name_H-M    'P 1'
loop_
_atom_site_label
_atom_site_type_symbol
_atom_site_fract_x
_atom_site_fract_y
_atom_site_fract_z
_atom_site_occupancy
C1   C   0.342526769376377   0.499701261477909   0.589674988588598   1.0
C2   C   0.510094295895506   0.365505667629918   0.542979827159897   1.0
H3   H   0.459200469771439   0.328343253255269   0.442622015730564   1.0
H4   H   0.646928453870800   0.528761227193236   0.515219137515452   1.0
H5   H   0.407636201945479   0.286967178344611   0.829020114052454   1.0
H6   H   0.291821187688562   0.620246063577703   0.769468125773777   1.0
H7   H   0.316134338829094   0.741437181057570   0.507304928370466   1.0
H8   H   0.551795629201763   0.139639140793982   0.634036064590276   1.0
H9   H   0.198989075243489   0.353715596740471   0.605794880328673   1.0
H10   H   0.541273462095099   0.630240028278180   0.740099139550587   1.0
N14   N   0.399607487470419   0.513490260169945   0.740473156724548   1.0
