data_1
_audit_creation_method   'Generated by vasp2cif'
_cell_length_a    7.22768696786
_cell_length_b    4.81357766782
_cell_length_c    8.24689008254
_cell_angle_alpha    106.873353063
_cell_angle_beta    89.8150549552
_cell_angle_gamma    85.3934346799
_symmetry_space_group_name_H-M    'P 1'
loop_
_atom_site_label
_atom_site_type_symbol
_atom_site_fract_x
_atom_site_fract_y
_atom_site_fract_z
_atom_site_occupancy
C1   C   0.577850067155268   0.479364463288242   0.493922588027914   1.0
C2   C   0.654099496786046   0.775963774580291   0.559656928063738   1.0
H3   H   0.770145829476057   0.757592345614007   0.641369253876633   1.0
H4   H   0.707723682404449   0.847071041733159   0.455485820513807   1.0
H5   H   0.472856493461045   0.549983681254417   0.265169079946354   1.0
H6   H   0.315127051622952   0.636733270161287   0.424325457709379   1.0
H7   H   0.684620488027697   0.312541382739752   0.426119782712917   1.0
H8   H   0.549318836649334   0.939899919230790   0.634311006605742   1.0
H9   H   0.515323639734838   0.411551521254182   0.595397616426865   1.0
H10   H   0.373793349506954   0.288236606671475   0.318624513123630   1.0
N14   N   0.425308755323485   0.488438747145274   0.367767578513295   1.0
