data_1
_audit_creation_method   'Generated by vasp2cif'
_cell_length_a    6.4876735764
_cell_length_b    4.71301106083
_cell_length_c    8.95479954272
_cell_angle_alpha    89.0358288683
_cell_angle_beta    87.6251647303
_cell_angle_gamma    80.5168556709
_symmetry_space_group_name_H-M    'P 1'
loop_
_atom_site_label
_atom_site_type_symbol
_atom_site_fract_x
_atom_site_fract_y
_atom_site_fract_z
_atom_site_occupancy
C1   C   0.443321206066138   0.535339939580332   0.503329756116919   1.0
C2   C   0.607018171313939   0.726933316102219   0.524007893621274   1.0
H3   H   0.765635945024691   0.608432720484799   0.506866601348854   1.0
H4   H   0.587192555428594   0.906765927580096   0.444421560720336   1.0
H5   H   0.602015809045298   0.306972163944487   0.316615012266340   1.0
H6   H   0.439324672989187   0.596741073018379   0.265658615025288   1.0
H7   H   0.466437455992725   0.345541403666154   0.576095515222107   1.0
H8   H   0.591007949263897   0.812047729086736   0.637393703269559   1.0
H9   H   0.284202924162557   0.649948296518353   0.522599944416996   1.0
H10   H   0.340440625686220   0.306809559136816   0.323325664272687   1.0
N14   N   0.456568776843156   0.428184168956761   0.342791295898444   1.0
