data_1
_audit_creation_method   'Generated by vasp2cif'
_cell_length_a    9.2552398958
_cell_length_b    4.40239639421
_cell_length_c    6.51092182088
_cell_angle_alpha    90.7825527348
_cell_angle_beta    89.3627771099
_cell_angle_gamma    92.1947260034
_symmetry_space_group_name_H-M    'P 1'
loop_
_atom_site_label
_atom_site_type_symbol
_atom_site_fract_x
_atom_site_fract_y
_atom_site_fract_z
_atom_site_occupancy
C1   C   0.375899331455734   0.756427164468633   0.407184947561248   1.0
C2   C   0.499695869164903   0.538222411249841   0.411641855997843   1.0
H3   H   0.500468511111720   0.392340462433793   0.274096618524936   1.0
H4   H   0.601912821949256   0.670960663034890   0.416145386793168   1.0
H5   H   0.220799594540800   0.444493455684913   0.274623063986120   1.0
H6   H   0.144620257068262   0.729142775625206   0.403483487804777   1.0
H7   H   0.374308018555659   0.902701195938405   0.543873079744792   1.0
H8   H   0.494037784203911   0.397807636719683   0.549172695699390   1.0
H9   H   0.379627301607989   0.894183375187843   0.268780284139517   1.0
H10   H   0.216111210419633   0.450088304778191   0.535453065039242   1.0
N14   N   0.230018091420504   0.582609350924876   0.405012444659079   1.0
