data_1
_audit_creation_method   'Generated by vasp2cif'
_cell_length_a    11.7378488851
_cell_length_b    4.90080092097
_cell_length_c    4.86222305725
_cell_angle_alpha    89.9923181929
_cell_angle_beta    90.0491540159
_cell_angle_gamma    85.1645831343
_symmetry_space_group_name_H-M    'P 1'
loop_
_atom_site_label
_atom_site_type_symbol
_atom_site_fract_x
_atom_site_fract_y
_atom_site_fract_z
_atom_site_occupancy
C1   C   0.596584542335172   0.706928093936483   0.547627691814569   1.0
C2   C   0.522912347726596   0.466782503928570   0.524154823058325   1.0
H3   H   0.536571281684040   0.327129260119236   0.698941521948406   1.0
H4   H   0.432849376686448   0.543941585587888   0.522697454954006   1.0
H5   H   0.742176647438249   0.474690788983658   0.714706515062261   1.0
H6   H   0.773263193657542   0.769206169889941   0.570752214375617   1.0
H7   H   0.584426379774335   0.847471145969976   0.374020242046477   1.0
H8   H   0.540484094085194   0.352867896365566   0.333155170694809   1.0
H9   H   0.580297621537888   0.822025672978839   0.737667421069105   1.0
H10   H   0.746876406440016   0.500429637785992   0.373519665634895   1.0
N14   N   0.723014582082634   0.607682372333336   0.551168663416739   1.0
