data_1
_audit_creation_method   'Generated by vasp2cif'
_cell_length_a    9.6700276915
_cell_length_b    4.73933456541
_cell_length_c    6.36770671447
_cell_angle_alpha    87.0871362536
_cell_angle_beta    98.5507357457
_cell_angle_gamma    108.046518117
_symmetry_space_group_name_H-M    'P 1'
loop_
_atom_site_label
_atom_site_type_symbol
_atom_site_fract_x
_atom_site_fract_y
_atom_site_fract_z
_atom_site_occupancy
C1   C   0.616337987936511   0.672065793218025   0.517358617007517   1.0
C2   C   0.484403596373696   0.587440176250610   0.638489302861259   1.0
H3   H   0.391098619727728   0.419269729528345   0.552323897164818   1.0
H4   H   0.512215825679888   0.503305306443153   0.797229511461374   1.0
H5   H   0.696682338795739   0.320100011626060   0.639867198119006   1.0
H6   H   0.757720977331772   0.461125737796678   0.411908491856884   1.0
H7   H   0.590879536258583   0.751396131743846   0.356593864216670   1.0
H8   H   0.450209361003708   0.783461799076910   0.657104858390881   1.0
H9   H   0.711266362561901   0.835451697205514   0.602816127200150   1.0
H10   H   0.583155568179002   0.243627676160280   0.402837486266193   1.0
N14   N   0.666873941657364   0.404111129474984   0.491368916281850   1.0
