data_1
_audit_creation_method   'Generated by vasp2cif'
_cell_length_a    6.4974090031
_cell_length_b    6.58766205956
_cell_length_c    7.43396546719
_cell_angle_alpha    76.5096335315
_cell_angle_beta    85.952348027
_cell_angle_gamma    87.7074863549
_symmetry_space_group_name_H-M    'P 1'
loop_
_atom_site_label
_atom_site_type_symbol
_atom_site_fract_x
_atom_site_fract_y
_atom_site_fract_z
_atom_site_occupancy
C1   C   0.674014515140342   0.663291375952959   0.389024200150835   1.0
C2   C   0.624262132567054   0.450593899130503   0.357298645084114   1.0
C3   C   0.619719174156501   0.458833244834530   0.150176817414135   1.0
H4   H   0.768243872403147   0.507561249598055   0.076946616792952   1.0
H5   H   0.587208626252256   0.304978657660925   0.129641840758936   1.0
H6   H   0.474303912136023   0.400576616996048   0.427783607234517   1.0
H7   H   0.740573354318272   0.334575610222871   0.418653089605762   1.0
H8   H   0.534471907667182   0.597346830507611   0.662215717890163   1.0
H9   H   0.694378476132300   0.796865663229532   0.624033553039325   1.0
H10   H   0.499674944560894   0.568310121625373   0.086883161869395   1.0
H11   H   0.826882144227021   0.715241724699361   0.329678262319185   1.0
H12   H   0.559211092301439   0.783726908459911   0.334601663406630   1.0
H13   H   0.791576816667444   0.555121036656082   0.655587752726930   1.0
N17   N   0.673990526105136   0.652478228230862   0.595468792021336   1.0
