data_1
_audit_creation_method   'Generated by vasp2cif'
_cell_length_a    6.37612723871
_cell_length_b    6.48480000718
_cell_length_c    7.6760181642
_cell_angle_alpha    100.164011664
_cell_angle_beta    81.5819970306
_cell_angle_gamma    89.2412072952
_symmetry_space_group_name_H-M    'P 1'
loop_
_atom_site_label
_atom_site_type_symbol
_atom_site_fract_x
_atom_site_fract_y
_atom_site_fract_z
_atom_site_occupancy
C1   C   0.499183141817745   0.599727129056681   0.620375492989318   1.0
C2   C   0.409036945009014   0.440961498206747   0.733283429825633   1.0
C3   C   0.528730029719355   0.445875125073613   0.893102551558123   1.0
H4   H   0.508696893050157   0.599509243381547   0.980974232324421   1.0
H5   H   0.470741700730919   0.328073989359979   0.971911258388253   1.0
H6   H   0.424422618452695   0.283521254570317   0.650729399257052   1.0
H7   H   0.238764676387120   0.475807640362014   0.779355609716511   1.0
H8   H   0.406890831226661   0.439298503764270   0.379464544580955   1.0
H9   H   0.450415644131468   0.693757189044739   0.376401522606507   1.0
H10   H   0.698556066626971   0.412496891054403   0.847539134345162   1.0
H11   H   0.475388687645264   0.761160654740777   0.693191204230146   1.0
H12   H   0.668166040751196   0.569089138088273   0.571247351123006   1.0
H13   H   0.229748493237707   0.627194310633065   0.492479829361216   1.0
N17   N   0.389898624964310   0.588598480068612   0.456168482951924   1.0
