data_1
_audit_creation_method   'Generated by vasp2cif'
_cell_length_a    6.71896980896
_cell_length_b    6.75170042521
_cell_length_c    6.71996647161
_cell_angle_alpha    80.1547571637
_cell_angle_beta    89.5837461377
_cell_angle_gamma    84.3889114453
_symmetry_space_group_name_H-M    'P 1'
loop_
_atom_site_label
_atom_site_type_symbol
_atom_site_fract_x
_atom_site_fract_y
_atom_site_fract_z
_atom_site_occupancy
C1   C   0.584947561419860   0.586990040356682   0.357818160898020   1.0
C2   C   0.613015317830218   0.407395238408398   0.246856212716189   1.0
C3   C   0.420775248805690   0.304570465575935   0.233118617656999   1.0
H4   H   0.298792494047490   0.411231095679348   0.159686912172333   1.0
H5   H   0.446353075905314   0.181857568469219   0.146380018145244   1.0
H6   H   0.733135633193704   0.297780066953187   0.320144725969207   1.0
H7   H   0.667004155067360   0.464344747774191   0.095438137392009   1.0
H8   H   0.592524422965212   0.397925491179144   0.646214739463630   1.0
H9   H   0.359583057159234   0.487931670389138   0.571191834276604   1.0
H10   H   0.369272289764467   0.237171399573128   0.382143144096204   1.0
H11   H   0.724948692379854   0.650936565560919   0.376588608505379   1.0
H12   H   0.475086959467291   0.706270127532882   0.283955511144036   1.0
H13   H   0.512597446170751   0.639028934145195   0.652960423719492   1.0
N17   N   0.506178333465392   0.522645442198225   0.570787236304142   1.0
