data_1
_audit_creation_method   'Generated by vasp2cif'
_cell_length_a    6.67724053455
_cell_length_b    6.5554041578
_cell_length_c    6.83898518365
_cell_angle_alpha    83.6085827035
_cell_angle_beta    83.3592372285
_cell_angle_gamma    85.6471147097
_symmetry_space_group_name_H-M    'P 1'
loop_
_atom_site_label
_atom_site_type_symbol
_atom_site_fract_x
_atom_site_fract_y
_atom_site_fract_z
_atom_site_occupancy
C1   C   0.535658543916135   0.579523407826436   0.379688437346502   1.0
C2   C   0.536029837934272   0.445147821352144   0.211446915203062   1.0
C3   C   0.447743113926833   0.236374082747297   0.279681824793634   1.0
H4   H   0.299857228824294   0.256672982394981   0.365437173518217   1.0
H5   H   0.427741630687493   0.156665452611882   0.152473638537657   1.0
H6   H   0.689718228511758   0.425571192183689   0.135822678686807   1.0
H7   H   0.444390730834975   0.531665077472063   0.103419381749731   1.0
H8   H   0.635287379604826   0.337804166375683   0.593162955201741   1.0
H9   H   0.670278731596071   0.575675143355511   0.645985414357980   1.0
H10   H   0.546399232024172   0.134996489106484   0.370838940958571   1.0
H11   H   0.590441862870826   0.731023951311109   0.328932041312449   1.0
H12   H   0.386084788152893   0.596806839844341   0.461157592588847   1.0
H13   H   0.823481760662602   0.472014382620671   0.470440657413093   1.0
N17   N   0.675165242284308   0.482694807506533   0.532112533595999   1.0
