data_1
_audit_creation_method   'Generated by vasp2cif'
_cell_length_a    6.68365945118
_cell_length_b    6.54717306899
_cell_length_c    6.82326157569
_cell_angle_alpha    83.899085005
_cell_angle_beta    83.0524314305
_cell_angle_gamma    84.8492672224
_symmetry_space_group_name_H-M    'P 1'
loop_
_atom_site_label
_atom_site_type_symbol
_atom_site_fract_x
_atom_site_fract_y
_atom_site_fract_z
_atom_site_occupancy
C1   C   0.539513523420624   0.608925098290634   0.341900595292074   1.0
C2   C   0.536013160530480   0.469588163382632   0.177084026261525   1.0
C3   C   0.430519132389698   0.271970446375029   0.247996639926079   1.0
H4   H   0.278156391613656   0.308763138633381   0.320624641624114   1.0
H5   H   0.416811684269320   0.185919786878635   0.122791035622797   1.0
H6   H   0.690774489893556   0.434383858738904   0.107558660533492   1.0
H7   H   0.454679634510008   0.559907359491191   0.062707759262480   1.0
H8   H   0.823914253408283   0.490358550597975   0.435943573820389   1.0
H9   H   0.630812017133081   0.367889274355825   0.560674438487297   1.0
H10   H   0.514044028415356   0.168990101320233   0.352518569054162   1.0
H11   H   0.600189217267108   0.756186806196474   0.287563048171201   1.0
H12   H   0.389930280251477   0.636047194299195   0.422482306755484   1.0
H13   H   0.673003061744922   0.605403886776820   0.609103078672256   1.0
N17   N   0.675483927884429   0.509627320360387   0.496910195771328   1.0
