data_1
_audit_creation_method   'Generated by vasp2cif'
_cell_length_a    8.41538668528
_cell_length_b    4.69914830823
_cell_length_c    8.07363235921
_cell_angle_alpha    75.5081337645
_cell_angle_beta    86.8097446455
_cell_angle_gamma    76.055084022
_symmetry_space_group_name_H-M    'P 1'
loop_
_atom_site_label
_atom_site_type_symbol
_atom_site_fract_x
_atom_site_fract_y
_atom_site_fract_z
_atom_site_occupancy
C1   C   0.903911223524268   0.363388601121187   0.380814904547641   1.0
C2   C   0.753304848085065   0.229691310949143   0.418306698451857   1.0
C3   C   0.679756250187260   0.213334633713565   0.251397251532247   1.0
H4   H   0.574540498487210   0.110748118141999   0.281422917250985   1.0
H5   H   0.769633263091052   0.077288591262423   0.181175812719445   1.0
H6   H   0.788162464386943   0.001371391985934   0.502611610993604   1.0
H7   H   0.661394386025968   0.363191011871280   0.488083919919539   1.0
H8   H   0.038198119271989   0.063936162454347   0.598056080443023   1.0
H9   H   0.955067976674606   0.401769960608789   0.632287894898774   1.0
H10   H   0.982853511794715   0.266565946563375   0.287475046082086   1.0
H11   H   0.639778900815749   0.439207380867686   0.166397315824419   1.0
H12   H   0.872399042471969   0.608875920603431   0.333309537599305   1.0
H13   H   0.119092460915745   0.358271788433335   0.506722145440179   1.0
N17   N   0.010183052732607   0.292366419426003   0.539366483016288   1.0
