data_1
_audit_creation_method   'Generated by vasp2cif'
_cell_length_a    8.8212678414
_cell_length_b    4.97281921056
_cell_length_c    8.82215359701
_cell_angle_alpha    82.9255863737
_cell_angle_beta    121.383156813
_cell_angle_gamma    115.17900463
_symmetry_space_group_name_H-M    'P 1'
loop_
_atom_site_label
_atom_site_type_symbol
_atom_site_fract_x
_atom_site_fract_y
_atom_site_fract_z
_atom_site_occupancy
C1   C   0.899554887878752   0.550949411086118   0.389691875782504   1.0
C2   C   0.763504331738513   0.631651098174961   0.412548683330322   1.0
C3   C   0.659444773917300   0.780327274345383   0.251867412316643   1.0
H4   H   0.762356848951353   0.950774612702603   0.217610991347324   1.0
H5   H   0.587812789880807   0.884177033355514   0.279568974365056   1.0
H6   H   0.654756995213854   0.431013021272891   0.425267389288547   1.0
H7   H   0.849181863524393   0.780209224915816   0.538378978308429   1.0
H8   H   0.921033113347327   0.249517196292121   0.586817919471921   1.0
H9   H   0.116381924507009   0.578809709756679   0.660031557463616   1.0
H10   H   0.817463076230178   0.388533368924247   0.271304736726028   1.0
H11   H   0.545722101775841   0.615583108604328   0.133124337082185   1.0
H12   H   0.011443515293237   0.749241374983228   0.380144789467551   1.0
H13   H   0.086064432450388   0.330073778236419   0.523321794690535   1.0
N17   N   0.011830132659866   0.414611465409241   0.549505777816813   1.0
