data_1
_audit_creation_method   'Generated by vasp2cif'
_cell_length_a    8.93411734561
_cell_length_b    4.9401155114
_cell_length_c    8.72623613486
_cell_angle_alpha    96.9286463009
_cell_angle_beta    121.354809734
_cell_angle_gamma    65.0989026172
_symmetry_space_group_name_H-M    'P 1'
loop_
_atom_site_label
_atom_site_type_symbol
_atom_site_fract_x
_atom_site_fract_y
_atom_site_fract_z
_atom_site_occupancy
C1   C   0.154245709627555   0.465096818256495   0.656435064638107   1.0
C2   C   0.299571705657981   0.526932227000072   0.640998752554572   1.0
C3   C   0.393418877231681   0.691936015947503   0.798626864537221   1.0
H4   H   0.499026181432988   0.538523930356245   0.924617726516923   1.0
H5   H   0.285612829151324   0.872322410757896   0.821990766669479   1.0
H6   H   0.410897927761612   0.315751588345199   0.641693468941679   1.0
H7   H   0.226325835494373   0.659249574874693   0.509973724084141   1.0
H8   H   0.144757019156928   0.142965906590887   0.468470404769402   1.0
H9   H   0.950378971523384   0.470672472450386   0.383342462994969   1.0
H10   H   0.225430426088672   0.317495106444512   0.780489272013811   1.0
H11   H   0.469736891287191   0.787502470201548   0.772846959728393   1.0
H12   H   0.040118386141638   0.673211038149335   0.653394998608547   1.0
H13   H   0.975020485742158   0.233746826510966   0.525017798029444   1.0
N17   N   0.051025861295160   0.313912760431630   0.499200498988863   1.0
