data_1
_audit_creation_method   'Generated by vasp2cif'
_cell_length_a    7.80756647021
_cell_length_b    6.62244547139
_cell_length_c    6.57861397942
_cell_angle_alpha    86.760830757
_cell_angle_beta    99.3997624139
_cell_angle_gamma    104.244853054
_symmetry_space_group_name_H-M    'P 1'
loop_
_atom_site_label
_atom_site_type_symbol
_atom_site_fract_x
_atom_site_fract_y
_atom_site_fract_z
_atom_site_occupancy
C1   C   0.198791242444457   0.671212181998087   0.486019678828688   1.0
C2   C   0.495818353081028   0.275078431710038   0.488133956564477   1.0
C3   C   0.334643559813864   0.370777839345200   0.441385945135879   1.0
C4   C   0.354849166536347   0.570326233675311   0.561305457157846   1.0
H5   H   0.604602562023467   0.380279869519311   0.214555403128590   1.0
H6   H   0.754299561672056   0.327534135927911   0.405134913593696   1.0
H7   H   0.687300175377611   0.549618535808080   0.407339604256406   1.0
H8   H   0.191717257486492   0.708181047188719   0.321159599414697   1.0
H9   H   0.071565536742195   0.565415087485937   0.510870654818004   1.0
H10   H   0.212929625597308   0.814589904414456   0.567750095913356   1.0
H11   H   0.217828404968924   0.253238800726983   0.478814127913080   1.0
H12   H   0.306574805243938   0.401621001949969   0.274648079628782   1.0
H13   H   0.361583985723255   0.532026482527424   0.726812768677525   1.0
H14   H   0.480976665263704   0.682923592739605   0.542808199957284   1.0
H15   H   0.552788478875730   0.283013175849151   0.650759046172882   1.0
H16   H   0.465163295584665   0.114223389902715   0.438377903219027   1.0
N20   N   0.645252873988053   0.392898136029793   0.371799611883741   1.0
