data_1
_audit_creation_method   'Generated by vasp2cif'
_cell_length_a    6.57456932834
_cell_length_b    6.5640475354
_cell_length_c    7.91055027593
_cell_angle_alpha    75.9140104227
_cell_angle_beta    80.1065638117
_cell_angle_gamma    86.1639366116
_symmetry_space_group_name_H-M    'P 1'
loop_
_atom_site_label
_atom_site_type_symbol
_atom_site_fract_x
_atom_site_fract_y
_atom_site_fract_z
_atom_site_occupancy
C1   C   0.503650154854306   0.682432719386860   0.802788376035259   1.0
C2   C   0.504147527023974   0.288386335408340   0.503679338056450   1.0
C3   C   0.459160094684911   0.382854198981015   0.664554900483481   1.0
C4   C   0.570322422592149   0.589044789381205   0.641743237473612   1.0
H5   H   0.226907059738373   0.397095879231614   0.403465582645666   1.0
H6   H   0.413746628840492   0.340722629152516   0.251920350995007   1.0
H7   H   0.420098738290790   0.565403129215227   0.316485631708083   1.0
H8   H   0.336232140010559   0.709266165741141   0.824073983011232   1.0
H9   H   0.545796780870425   0.575483183926785   0.922135755350638   1.0
H10   H   0.577433608794799   0.831641477293530   0.785862141799406   1.0
H11   H   0.506468755993197   0.265640491428357   0.776234647214345   1.0
H12   H   0.291372732666140   0.406918436850809   0.699439476975947   1.0
H13   H   0.738310404824766   0.558933341078443   0.621827108076694   1.0
H14   H   0.536512985744068   0.704404794674993   0.522993779389033   1.0
H15   H   0.666517344069298   0.296957609875975   0.444612574473752   1.0
H16   H   0.455895875838287   0.126141425998497   0.533426128411627   1.0
N20   N   0.383978956746695   0.407972896687092   0.359500961864356   1.0
