data_1
_audit_creation_method   'Generated by vasp2cif'
_cell_length_a    6.85477882664
_cell_length_b    6.61150006479
_cell_length_c    6.60060380513
_cell_angle_alpha    82.0928052545
_cell_angle_beta    85.360795983
_cell_angle_gamma    91.9724298007
_symmetry_space_group_name_H-M    'P 1'
loop_
_atom_site_label
_atom_site_type_symbol
_atom_site_fract_x
_atom_site_fract_y
_atom_site_fract_z
_atom_site_occupancy
C1   C   0.422318681682078   0.708678261391107   0.190408471861438   1.0
C2   C   0.567931028412083   0.886041102900975   0.199587976840469   1.0
C3   C   0.487248391634061   0.038882426706941   0.334048252304598   1.0
H4   H   0.452756483489239   0.965235363029592   0.492796678094592   1.0
H5   H   0.589499245967467   0.169033762331495   0.333328389790388   1.0
H6   H   0.351864321299409   0.096009117794722   0.276106209465439   1.0
H7   H   0.854572950617573   0.918694781486792   0.299329813709605   1.0
H8   H   0.618675445916054   0.961386623766508   0.045293523505357   1.0
H9   H   0.486737175974348   0.590225821571970   0.109412611498790   1.0
H10   H   0.299160671932583   0.766920254465262   0.107905840695850   1.0
H11   H   0.366183866803098   0.639850957405159   0.345303478624956   1.0
H12   H   0.820325356954370   0.700644823315045   0.201229734704142   1.0
H13   H   0.719828371098473   0.722132365668486   0.435776225217047   1.0
N17   N   0.753957285231564   0.800720445707000   0.289755807621844   1.0
