data_1
_audit_creation_method   'Generated by vasp2cif'
_cell_length_a    6.54817078025
_cell_length_b    6.65507271373
_cell_length_c    6.82907312285
_cell_angle_alpha    87.6308572032
_cell_angle_beta    93.7800368351
_cell_angle_gamma    82.293234165
_symmetry_space_group_name_H-M    'P 1'
loop_
_atom_site_label
_atom_site_type_symbol
_atom_site_fract_x
_atom_site_fract_y
_atom_site_fract_z
_atom_site_occupancy
C1   C   0.240803514020392   0.793472360082042   0.518624750557557   1.0
C2   C   0.354953536659885   0.875738579741800   0.352153939069588   1.0
C3   C   0.553584014114598   0.955038987418831   0.421640475275325   1.0
H4   H   0.513796864614150   0.086166977916072   0.509692210693920   1.0
H5   H   0.656335021340446   0.840076414427621   0.513703150286986   1.0
H6   H   0.636399448175730   0.003499408886043   0.298499970774280   1.0
H7   H   0.492145832983354   0.756164941042996   0.098240553546027   1.0
H8   H   0.253161933421858   0.993097661992124   0.262645708696823   1.0
H9   H   0.208447586102587   0.913206548791990   0.621384542610564   1.0
H10   H   0.335135366885289   0.663655509491853   0.599455565528011   1.0
H11   H   0.094203039671186   0.746725020991107   0.465342546886589   1.0
H12   H   0.276537666339564   0.659198841686312   0.145278315005193   1.0
H13   H   0.500295143305785   0.581911145777944   0.280172100016053   1.0
N17   N   0.408417943526075   0.706028047416666   0.209438720383673   1.0
