data_1
_audit_creation_method   'Generated by vasp2cif'
_cell_length_a    6.81387114156
_cell_length_b    6.63858914624
_cell_length_c    6.60396533866
_cell_angle_alpha    81.1873604986
_cell_angle_beta    85.6417534529
_cell_angle_gamma    91.8637993928
_symmetry_space_group_name_H-M    'P 1'
loop_
_atom_site_label
_atom_site_type_symbol
_atom_site_fract_x
_atom_site_fract_y
_atom_site_fract_z
_atom_site_occupancy
C1   C   0.440652643748955   0.642241318132804   0.354608366131906   1.0
C2   C   0.603594102851417   0.749472181294784   0.449397227362709   1.0
C3   C   0.533396904933689   0.834302720683745   0.642591951757602   1.0
H4   H   0.430761895787327   0.953964259812757   0.600978126246929   1.0
H5   H   0.456408345168597   0.715999248293187   0.757702296275838   1.0
H6   H   0.655586370787645   0.901108654093804   0.711045596558115   1.0
H7   H   0.872265632674328   0.662681634083846   0.578572991196623   1.0
H8   H   0.678864944118232   0.869679380926591   0.335662731716504   1.0
H9   H   0.326226825813279   0.750202119520658   0.316837621838111   1.0
H10   H   0.372934888614829   0.512061338086532   0.462700634690478   1.0
H11   H   0.494864578241675   0.587780783497713   0.213524442221214   1.0
H12   H   0.830878295330223   0.550440936890844   0.374579385664710   1.0
H13   H   0.705696946599389   0.469804166301586   0.604481042587892   1.0
N17   N   0.764266124232954   0.596907498640775   0.504586819155051   1.0
