data_1
_audit_creation_method   'Generated by vasp2cif'
_cell_length_a    6.7586528138
_cell_length_b    6.48745471172
_cell_length_c    6.79052872641
_cell_angle_alpha    93.4191729716
_cell_angle_beta    92.2256152858
_cell_angle_gamma    85.3654298215
_symmetry_space_group_name_H-M    'P 1'
loop_
_atom_site_label
_atom_site_type_symbol
_atom_site_fract_x
_atom_site_fract_y
_atom_site_fract_z
_atom_site_occupancy
C1   C   0.589832672959012   0.707040302554006   0.601368146314854   1.0
C2   C   0.450673328390366   0.539193630484114   0.632999939859097   1.0
C3   C   0.349168810088429   0.565242101134466   0.830267900420985   1.0
H4   H   0.461666421336538   0.560474675898341   0.950080172091496   1.0
H5   H   0.251198995678045   0.442237152936478   0.846882457821842   1.0
H6   H   0.262912325325054   0.715398538240855   0.843370991491859   1.0
H7   H   0.339433787867179   0.509079246068715   0.332286683048068   1.0
H8   H   0.527156686425641   0.384375669412662   0.611368191002853   1.0
H9   H   0.716755704220184   0.689613829877189   0.705320588011659   1.0
H10   H   0.646022598952889   0.693850679292723   0.452216203488284   1.0
H11   H   0.515011667974377   0.861909505085954   0.628192415177246   1.0
H12   H   0.182327683124498   0.440940756294886   0.493516238117692   1.0
H13   H   0.209811634833578   0.692667924422217   0.471060497937138   1.0
N17   N   0.284650876917951   0.547076163261707   0.470495305120259   1.0
