data_1
_audit_creation_method   'Generated by vasp2cif'
_cell_length_a    9.12568613115
_cell_length_b    4.86631379168
_cell_length_c    8.14647881299
_cell_angle_alpha    72.0081988247
_cell_angle_beta    72.3250143302
_cell_angle_gamma    62.0336844557
_symmetry_space_group_name_H-M    'P 1'
loop_
_atom_site_label
_atom_site_type_symbol
_atom_site_fract_x
_atom_site_fract_y
_atom_site_fract_z
_atom_site_occupancy
C1   C   0.632841367225428   0.282194845386961   0.308428313010795   1.0
C2   C   0.596511944778166   0.991339587427342   0.406940987304923   1.0
C3   C   0.739473246543017   0.734548150498404   0.500701663343224   1.0
H4   H   0.854267498309520   0.643632542684672   0.404038352879838   1.0
H5   H   0.710330554463775   0.534352023562180   0.581100764232932   1.0
H6   H   0.767505139039692   0.831916531868577   0.585976058543987   1.0
H7   H   0.333341909372514   0.276901608132895   0.493948742648938   1.0
H8   H   0.568708046506529   0.902204685954104   0.317405060131208   1.0
H9   H   0.662902420923707   0.367716099176477   0.397677659476664   1.0
H10   H   0.743079483940673   0.214334637698929   0.203053875685493   1.0
H11   H   0.527663185444250   0.473154718304784   0.248388987892894   1.0
H12   H   0.397760994429577   0.901424298701924   0.604677118720525   1.0
H13   H   0.450223484982034   0.153519763165282   0.647291848167474   1.0
N17   N   0.433323312759668   0.087130474539095   0.546642139772765   1.0
