data_1
_audit_creation_method   'Generated by vasp2cif'
_cell_length_a    8.71398853243
_cell_length_b    4.90026903202
_cell_length_c    7.95357896975
_cell_angle_alpha    107.946963296
_cell_angle_beta    79.0523904295
_cell_angle_gamma    108.84837877
_symmetry_space_group_name_H-M    'P 1'
loop_
_atom_site_label
_atom_site_type_symbol
_atom_site_fract_x
_atom_site_fract_y
_atom_site_fract_z
_atom_site_occupancy
C1   C   0.656022408820478   0.349032359933103   0.352141387040100   1.0
C2   C   0.601088779824486   0.109765322036247   0.454606238118724   1.0
C3   C   0.729468922244770   0.139550709170726   0.570685934794275   1.0
H4   H   0.841940451681586   0.116023462379205   0.487417526813483   1.0
H5   H   0.690055879829477   0.972090985437123   0.645613228542357   1.0
H6   H   0.758255113119909   0.361053341365279   0.665658530383071   1.0
H7   H   0.351932742149452   0.126229279055838   0.505383088255703   1.0
H8   H   0.567565798339169   0.887385951831827   0.361961219941414   1.0
H9   H   0.702401064703657   0.570257526487912   0.441381470338122   1.0
H10   H   0.755396625723209   0.299740258714393   0.251532492244550   1.0
H11   H   0.558885934203478   0.348784761413042   0.283118774707451   1.0
H12   H   0.398613744479228   0.959897479478852   0.635982189535685   1.0
H13   H   0.460453090410904   0.330470470368499   0.676808712276833   1.0
N17   N   0.442466153043645   0.132258713424343   0.575194800103134   1.0
