data_1
_audit_creation_method   'Generated by vasp2cif'
_cell_length_a    7.96389977012
_cell_length_b    4.73444620477
_cell_length_c    8.37795563605
_cell_angle_alpha    75.675356168
_cell_angle_beta    78.6347081138
_cell_angle_gamma    88.0073698757
_symmetry_space_group_name_H-M    'P 1'
loop_
_atom_site_label
_atom_site_type_symbol
_atom_site_fract_x
_atom_site_fract_y
_atom_site_fract_z
_atom_site_occupancy
C1   C   0.567392441231359   0.996919025463688   0.314524721728777   1.0
C2   C   0.554052034523776   0.996528502574819   0.499001613961444   1.0
C3   C   0.683034975575180   0.205892265569449   0.522573173978256   1.0
H4   H   0.811814246222424   0.125332116844843   0.487604943318834   1.0
H5   H   0.667016831860996   0.219797380668140   0.652798753270600   1.0
H6   H   0.673999320608351   0.424133050554314   0.441702505613925   1.0
H7   H   0.361612110636925   0.090032726281981   0.696341519636081   1.0
H8   H   0.569710793004822   0.777793279628883   0.575442284529912   1.0
H9   H   0.471135102200038   0.856919230300257   0.294561183356528   1.0
H10   H   0.553656546366284   0.217702206133560   0.238516760602156   1.0
H11   H   0.693943911695003   0.919018217679785   0.267155149527097   1.0
H12   H   0.333808320459453   0.277746615952719   0.506304570587206   1.0
H13   H   0.281615471048855   0.926886578327692   0.570217556099472   1.0
N17   N   0.371227258763514   0.078293674336850   0.572982376673544   1.0
