data_1
_audit_creation_method   'Generated by vasp2cif'
_cell_length_a    6.84051571002
_cell_length_b    4.65925218697
_cell_length_c    9.38620997335
_cell_angle_alpha    85.4452165601
_cell_angle_beta    85.881688548
_cell_angle_gamma    96.0837511965
_symmetry_space_group_name_H-M    'P 1'
loop_
_atom_site_label
_atom_site_type_symbol
_atom_site_fract_x
_atom_site_fract_y
_atom_site_fract_z
_atom_site_occupancy
C1   C   0.489231495193089   0.576518864475283   0.645753700520224   1.0
C2   C   0.438973970221511   0.434339976937899   0.510471436813184   1.0
C3   C   0.314987737720301   0.610437720864972   0.415751531729164   1.0
H4   H   0.182971146532402   0.651970014536175   0.480016024284190   1.0
H5   H   0.270010913795389   0.497705758212973   0.323937085647557   1.0
H6   H   0.395988536157702   0.820063979629573   0.374567340998617   1.0
H7   H   0.605105414352238   0.293014656732922   0.330766924244841   1.0
H8   H   0.364460881336946   0.215530504460851   0.538268014467960   1.0
H9   H   0.579748353694526   0.448446277668822   0.711188152536479   1.0
H10   H   0.568070541337832   0.793769769389407   0.620145831781684   1.0
H11   H   0.352695536463955   0.596822245747568   0.710140833943157   1.0
H12   H   0.715005856844435   0.588511536491851   0.389544446330625   1.0
H13   H   0.720223886055841   0.270190091964473   0.483558265412206   1.0
N17   N   0.632000515945563   0.391506460714744   0.423791385141172   1.0
