data_1
_audit_creation_method   'Generated by vasp2cif'
_cell_length_a    6.79233403614
_cell_length_b    6.47037665283
_cell_length_c    6.46452938437
_cell_angle_alpha    88.237421472
_cell_angle_beta    93.8520589438
_cell_angle_gamma    95.0205669508
_symmetry_space_group_name_H-M    'P 1'
loop_
_atom_site_label
_atom_site_type_symbol
_atom_site_fract_x
_atom_site_fract_y
_atom_site_fract_z
_atom_site_occupancy
H4   H   0.497457766748078   0.639802517739760   0.351783929589555   1.0
H5   H   0.775206079685746   0.430864511369309   0.437504849451923   1.0
H6   H   0.560219059400040   0.638800040640598   0.603623319390243   1.0
H7   H   0.223821546387382   0.376416112626609   0.402245225125369   1.0
H8   H   0.294004453816835   0.377974406081290   0.674612977549989   1.0
H9   H   0.204206872831093   0.603976903041708   0.547468060667448   1.0
H10   H   0.563397880450353   0.281961234380429   0.323449709925601   1.0
H11   H   0.617935860665487   0.270057837730765   0.599139146766962   1.0
C12   C   0.288063198769280   0.470315817653903   0.530937669322405   1.0
C13   C   0.624158035655414   0.367751210486847   0.459186511128436   1.0
N15   N   0.497943665659245   0.545939359010783   0.484993652028517   1.0
