data_1
_audit_creation_method   'Generated by vasp2cif'
_cell_length_a    6.59322772213
_cell_length_b    6.58048331369
_cell_length_c    6.57634016614
_cell_angle_alpha    86.2179995695
_cell_angle_beta    98.4337273182
_cell_angle_gamma    96.6306238533
_symmetry_space_group_name_H-M    'P 1'
loop_
_atom_site_label
_atom_site_type_symbol
_atom_site_fract_x
_atom_site_fract_y
_atom_site_fract_z
_atom_site_occupancy
H4   H   0.350002000951002   0.566508669074312   0.278698299978113   1.0
H5   H   0.661137408766185   0.402237978912972   0.285005189766919   1.0
H6   H   0.540206631962162   0.672251438990891   0.447483246645934   1.0
H7   H   0.190201995357241   0.368124635465722   0.543728185667887   1.0
H8   H   0.395412347345922   0.470951449252019   0.730663797626041   1.0
H9   H   0.220099282368870   0.636007015980885   0.590482865380173   1.0
H10   H   0.457509710966283   0.227998022870879   0.369698046231610   1.0
H11   H   0.658325195718719   0.341924490827070   0.554391143086451   1.0
C12   C   0.299851955238282   0.501259961204069   0.584480548321067   1.0
C13   C   0.564178128846954   0.364236480758826   0.405669575640341   1.0
N15   N   0.439337334576750   0.540680447681557   0.419325672668598   1.0
