data_1
_audit_creation_method   'Generated by vasp2cif'
_cell_length_a    6.5883595856
_cell_length_b    6.59638538046
_cell_length_c    6.56667852538
_cell_angle_alpha    82.7153629725
_cell_angle_beta    97.9715112209
_cell_angle_gamma    94.6300587467
_symmetry_space_group_name_H-M    'P 1'
loop_
_atom_site_label
_atom_site_type_symbol
_atom_site_fract_x
_atom_site_fract_y
_atom_site_fract_z
_atom_site_occupancy
H4   H   0.522431570219197   0.653656361136711   0.381970210857915   1.0
H5   H   0.665136999053246   0.354858627995590   0.288855556913177   1.0
H6   H   0.656960099522372   0.527788366947256   0.587340519787602   1.0
H7   H   0.201258884382064   0.492953657766854   0.492365299899831   1.0
H8   H   0.351132255576672   0.367127356244723   0.713879539839205   1.0
H9   H   0.345010282277706   0.640662209223336   0.680937735586987   1.0
H10   H   0.390166817500898   0.343437421263168   0.244957232492347   1.0
H11   H   0.519162983178788   0.199537429236372   0.468354938131469   1.0
C12   C   0.340486154256908   0.504414642573131   0.602395481599316   1.0
C13   C   0.525125089960866   0.339981999911629   0.361655633287569   1.0
N15   N   0.523339376160017   0.519565374752361   0.483576893385326   1.0
