data_1
_audit_creation_method   'Generated by vasp2cif'
_cell_length_a    6.61174435797
_cell_length_b    6.57054458469
_cell_length_c    6.54948351705
_cell_angle_alpha    88.0783017485
_cell_angle_beta    85.7861411209
_cell_angle_gamma    80.5221481624
_symmetry_space_group_name_H-M    'P 1'
loop_
_atom_site_label
_atom_site_type_symbol
_atom_site_fract_x
_atom_site_fract_y
_atom_site_fract_z
_atom_site_occupancy
H4   H   0.415621016818271   0.667668475408327   0.353766223074878   1.0
H5   H   0.290258344672509   0.343973868220814   0.355994560362028   1.0
H6   H   0.600375052051099   0.486039756899068   0.256469286937090   1.0
H7   H   0.567174049664438   0.644703757928518   0.679599252283289   1.0
H8   H   0.765888155045886   0.448221028652334   0.576681485443238   1.0
H9   H   0.741668884104875   0.706213939887412   0.473821053535637   1.0
H10   H   0.300652852592293   0.431936281379528   0.610465621321893   1.0
H11   H   0.496657962540439   0.232867704619153   0.508246694434320   1.0
C12   C   0.659017647848586   0.587775457151395   0.541973143366803   1.0
C13   C   0.390441356378645   0.372520571020303   0.472482695082356   1.0
N15   N   0.515123978249669   0.534755493217460   0.390128261842470   1.0
