data_1
_audit_creation_method   'Generated by vasp2cif'
_cell_length_a    6.56960246026
_cell_length_b    4.66927389918
_cell_length_c    9.0041853481
_cell_angle_alpha    87.8199897035
_cell_angle_beta    83.8201834111
_cell_angle_gamma    82.9464318315
_symmetry_space_group_name_H-M    'P 1'
loop_
_atom_site_label
_atom_site_type_symbol
_atom_site_fract_x
_atom_site_fract_y
_atom_site_fract_z
_atom_site_occupancy
H4   H   0.321444526554881   0.277713399258836   0.541446472963348   1.0
H5   H   0.626018877662004   0.483539231528822   0.427721935343841   1.0
H6   H   0.490639242159676   0.798098555089988   0.402091885197609   1.0
H7   H   0.549412156905780   0.495877900582595   0.696191348850343   1.0
H8   H   0.670068423208440   0.802216231568140   0.624257241517175   1.0
H9   H   0.396315259051238   0.835794580619655   0.676416350248018   1.0
H10   H   0.303584567465362   0.405831571455992   0.351527872066401   1.0
H11   H   0.172817504893706   0.612990825442969   0.504209377648371   1.0
C12   C   0.530932054935934   0.695458202488462   0.629521120354891   1.0
C13   C   0.309028739676592   0.466239967061422   0.466444833286119   1.0
N15   N   0.497724365188929   0.618576882321328   0.472757908766017   1.0
