data_1
_audit_creation_method   'Generated by vasp2cif'
_cell_length_a    8.38707766764
_cell_length_b    4.77148329735
_cell_length_c    7.45312626299
_cell_angle_alpha    101.35393972
_cell_angle_beta    95.4420243299
_cell_angle_gamma    104.944932713
_symmetry_space_group_name_H-M    'P 1'
loop_
_atom_site_label
_atom_site_type_symbol
_atom_site_fract_x
_atom_site_fract_y
_atom_site_fract_z
_atom_site_occupancy
H4   H   0.406524258577249   0.616893589852026   0.335110946303303   1.0
H5   H   0.539921719328213   0.014032157282230   0.614990613202288   1.0
H6   H   0.602899590706272   0.247564700548814   0.483074147310788   1.0
H7   H   0.249652112521737   0.935180626883934   0.507315215666630   1.0
H8   H   0.351847033261848   0.324147062430633   0.589368669282401   1.0
H9   H   0.304784181685612   0.157166759655752   0.344458293749064   1.0
H10   H   0.630926766017787   0.755781921886353   0.359150329408031   1.0
H11   H   0.499486142608326   0.871804508974229   0.203776762806150   1.0
C12   C   0.340458008566095   0.126370273178985   0.481739055251467   1.0
C13   C   0.511873207129632   0.805561796135677   0.334786586924587   1.0
N15   N   0.508245040078201   0.062245425676949   0.488429891177603   1.0
