data_1
_audit_creation_method   'Generated by vasp2cif'
_cell_length_a    6.59324841203
_cell_length_b    4.75257092619
_cell_length_c    8.66059140727
_cell_angle_alpha    78.6173345076
_cell_angle_beta    87.180432428
_cell_angle_gamma    83.9816484857
_symmetry_space_group_name_H-M    'P 1'
loop_
_atom_site_label
_atom_site_type_symbol
_atom_site_fract_x
_atom_site_fract_y
_atom_site_fract_z
_atom_site_occupancy
H4   H   0.330032429996851   0.150862007350069   0.550220069119271   1.0
H5   H   0.652483525033012   0.380242157514917   0.506165067407847   1.0
H6   H   0.530079126861289   0.674005078981514   0.405773151925754   1.0
H7   H   0.460462080955299   0.410351177521752   0.745006251912380   1.0
H8   H   0.566852650485334   0.741850515752551   0.670303414456771   1.0
H9   H   0.301502216285657   0.709123711437051   0.642227033047682   1.0
H10   H   0.411626907319812   0.241919300496753   0.345852896098331   1.0
H11   H   0.214102116385395   0.463339256059691   0.426498124565245   1.0
C12   C   0.455457298978355   0.599731948221913   0.650554077715740   1.0
C13   C   0.354920596440861   0.323199729045418   0.450538399067083   1.0
N15   N   0.511396015000964   0.500300709944424   0.496693430868639   1.0
