data_1
_audit_creation_method   'Generated by vasp2cif'
_cell_length_a    6.65217116795
_cell_length_b    6.60257501595
_cell_length_c    6.59359859845
_cell_angle_alpha    88.8001815263
_cell_angle_beta    97.7904993925
_cell_angle_gamma    82.9507838657
_symmetry_space_group_name_H-M    'P 1'
loop_
_atom_site_label
_atom_site_type_symbol
_atom_site_fract_x
_atom_site_fract_y
_atom_site_fract_z
_atom_site_occupancy
C1   C   0.365319904159392   0.412877132160759   0.593731261522997   1.0
C2   C   0.516062459918224   0.516243830816137   0.492937002737896   1.0
H3   H   0.691227317863984   0.500169593782068   0.256497621955525   1.0
H4   H   0.679770102567680   0.762914969219310   0.508612899585579   1.0
H5   H   0.348832930221491   0.262733313367832   0.532599468972748   1.0
H6   H   0.215995490250947   0.507173776192381   0.567831853345297   1.0
H7   H   0.414059308056949   0.396222792368441   0.759147201551549   1.0
H8   H   0.522647498604165   0.744907329278448   0.696129946042085   1.0
H9   H   0.541407704040942   0.304891770044300   0.273702116187266   1.0
N13   N   0.586671796032995   0.437067712795219   0.329552511696718   1.0
N14   N   0.574588393194240   0.687585789210857   0.568058099537751   1.0
