data_1
_audit_creation_method   'Generated by vasp2cif'
_cell_length_a    6.66501248759
_cell_length_b    6.60932222244
_cell_length_c    6.61240374519
_cell_angle_alpha    90.8061132054
_cell_angle_beta    97.7763486993
_cell_angle_gamma    97.7100616367
_symmetry_space_group_name_H-M    'P 1'
loop_
_atom_site_label
_atom_site_type_symbol
_atom_site_fract_x
_atom_site_fract_y
_atom_site_fract_z
_atom_site_occupancy
C1   C   0.637068539914296   0.508052574416325   0.525181445577054   1.0
C2   C   0.494882935395403   0.615569073289109   0.631017916322193   1.0
H3   H   0.325943934695047   0.598518331341218   0.871564485035670   1.0
H4   H   0.326711413429791   0.856863257597375   0.613315177482555   1.0
H5   H   0.746559897639187   0.444252596662380   0.635925917234978   1.0
H6   H   0.720462686653384   0.611068046982588   0.428304554891433   1.0
H7   H   0.547681425723411   0.381925030589080   0.428820953875885   1.0
H8   H   0.480626180192878   0.840528435605592   0.423833060081591   1.0
H9   H   0.479159129706673   0.408218315867487   0.855783913586571   1.0
N13   N   0.431115950057766   0.538423797647866   0.798762361920737   1.0
N14   N   0.431843617538838   0.783580864079397   0.553589990802053   1.0
