data_1
_audit_creation_method   'Generated by vasp2cif'
_cell_length_a    6.63670659644
_cell_length_b    4.60497635093
_cell_length_c    9.63998738537
_cell_angle_alpha    108.750045475
_cell_angle_beta    81.5954820102
_cell_angle_gamma    92.2249676456
_symmetry_space_group_name_H-M    'P 1'
loop_
_atom_site_label
_atom_site_type_symbol
_atom_site_fract_x
_atom_site_fract_y
_atom_site_fract_z
_atom_site_occupancy
C1   C   0.490458577001029   0.524034707868275   0.634372080364621   1.0
C2   C   0.473906378637160   0.314641562406607   0.481882271995197   1.0
H3   H   0.344906400801690   0.255514718505019   0.293271376893713   1.0
H4   H   0.258114903150293   0.571905403315377   0.444540744122925   1.0
H5   H   0.474632114410255   0.394529203644140   0.712295702157427   1.0
H6   H   0.641659794016093   0.629087538934137   0.635826660369986   1.0
H7   H   0.374908475345322   0.705056003551967   0.670200034303150   1.0
H8   H   0.587810902864071   0.916982707776327   0.323814370021033   1.0
H9   H   0.692595737306654   0.024443246027666   0.488389207983005   1.0
N13   N   0.354212394485188   0.388750175147280   0.399694417743674   1.0
N14   N   0.583305323998253   0.056635033782115   0.430567856563165   1.0
