data_1
_audit_creation_method   'Generated by vasp2cif'
_cell_length_a    8.43856761711
_cell_length_b    4.38904325784
_cell_length_c    7.58647904695
_cell_angle_alpha    90.5774159744
_cell_angle_beta    92.459377417
_cell_angle_gamma    79.5450730081
_symmetry_space_group_name_H-M    'P 1'
loop_
_atom_site_label
_atom_site_type_symbol
_atom_site_fract_x
_atom_site_fract_y
_atom_site_fract_z
_atom_site_occupancy
C1   C   0.617389358861122   0.905959567365071   0.517327435260396   1.0
C2   C   0.491321953340051   0.721109783789949   0.459287776502467   1.0
H3   H   0.372643495070117   0.785666312126922   0.689092355858372   1.0
H4   H   0.290207620755538   0.556928492584029   0.534404058212710   1.0
H5   H   0.724297424259247   0.747289759347715   0.569357076650874   1.0
H6   H   0.653564819521257   0.030346257899806   0.406185692818806   1.0
H7   H   0.574626723550042   0.068489988596175   0.622185445325457   1.0
H8   H   0.414830108583709   0.466785050692106   0.250658731902517   1.0
H9   H   0.582048373720351   0.626327030622462   0.213596843087716   1.0
N13   N   0.380659989403813   0.675360252946482   0.569950048512105   1.0
N14   N   0.495844456557232   0.596846170751066   0.298774193371550   1.0
