data_1
_audit_creation_method   'Generated by vasp2cif'
_cell_length_a    6.54042973538
_cell_length_b    6.38570316197
_cell_length_c    6.4841099437
_cell_angle_alpha    89.9595643154
_cell_angle_beta    90.7082806322
_cell_angle_gamma    89.9299849655
_symmetry_space_group_name_H-M    'P 1'
loop_
_atom_site_label
_atom_site_type_symbol
_atom_site_fract_x
_atom_site_fract_y
_atom_site_fract_z
_atom_site_occupancy
H4   H   0.555803098911348   0.500798985620854   0.292142496410797   1.0
H5   H   0.631897344735549   0.371709483305089   0.502290525364792   1.0
H6   H   0.626761873654509   0.634151096493326   0.501154494172013   1.0
H7   H   0.259029104997701   0.354119389704096   0.472117856372108   1.0
H8   H   0.336861124360581   0.498264928381609   0.697201123693162   1.0
H9   H   0.252613313386803   0.635432660325691   0.469851843891355   1.0
C10   C   0.331478617014966   0.496910457799487   0.529072468774800   1.0
N12   N   0.549570299307263   0.501208330605095   0.451517716670892   1.0
