data_1
_audit_creation_method   'Generated by vasp2cif'
_cell_length_a    6.45993847982
_cell_length_b    6.44161702371
_cell_length_c    6.52589227151
_cell_angle_alpha    87.4237652108
_cell_angle_beta    86.7983593724
_cell_angle_gamma    92.8515608187
_symmetry_space_group_name_H-M    'P 1'
loop_
_atom_site_label
_atom_site_type_symbol
_atom_site_fract_x
_atom_site_fract_y
_atom_site_fract_z
_atom_site_occupancy
H4   H   0.319731082371843   0.361647968390334   0.479549391466249   1.0
H5   H   0.554590633087989   0.412156419090448   0.359338673881668   1.0
H6   H   0.390886608708457   0.601727541849433   0.379141663198935   1.0
H7   H   0.587017558425846   0.386919632705362   0.730624507029039   1.0
H8   H   0.657990006811508   0.644621605669883   0.626144107174998   1.0
H9   H   0.407351653809724   0.589630808493786   0.755133539022530   1.0
C10   C   0.530957837962503   0.527884594338286   0.658746733525203   1.0
N12   N   0.442462982949981   0.471950687978297   0.456223082718280   1.0
