data_1
_audit_creation_method   'Generated by vasp2cif'
_cell_length_a    6.68051111288
_cell_length_b    4.72566802198
_cell_length_c    8.39134898591
_cell_angle_alpha    103.219877001
_cell_angle_beta    81.896977978
_cell_angle_gamma    94.497682185
_symmetry_space_group_name_H-M    'P 1'
loop_
_atom_site_label
_atom_site_type_symbol
_atom_site_fract_x
_atom_site_fract_y
_atom_site_fract_z
_atom_site_occupancy
H4   H   0.322673321701259   0.753258237641276   0.490002955697200   1.0
H5   H   0.564584654904337   0.732020119075422   0.395887733353540   1.0
H6   H   0.411743921079491   0.954459752689928   0.352534653281161   1.0
H7   H   0.553944339177725   0.007325103365680   0.682717984934712   1.0
H8   H   0.649641923066106   0.223844318282502   0.537591927041660   1.0
H9   H   0.391831112523882   0.252112232474779   0.635263255496341   1.0
C10   C   0.516372457563051   0.108059613167029   0.586820256188247   1.0
N12   N   0.448614111556644   0.870376360817509   0.448036155805767   1.0
