data_1
_audit_creation_method   'Generated by vasp2cif'
_cell_length_a    6.8375993976
_cell_length_b    4.73443500755
_cell_length_c    8.62210855323
_cell_angle_alpha    107.193598478
_cell_angle_beta    84.9449949677
_cell_angle_gamma    75.2066919875
_symmetry_space_group_name_H-M    'P 1'
loop_
_atom_site_label
_atom_site_type_symbol
_atom_site_fract_x
_atom_site_fract_y
_atom_site_fract_z
_atom_site_occupancy
H4   H   0.693527019218969   0.315255195072275   0.479098096241017   1.0
H5   H   0.537234427756104   0.620831275785633   0.635572634248398   1.0
H6   H   0.710360053940491   0.665579199002046   0.501777533267074   1.0
H7   H   0.360898776313633   0.428861690359241   0.398342978944690   1.0
H8   H   0.356057232332930   0.823755618756778   0.443416453531107   1.0
H9   H   0.537837418555519   0.529964867744518   0.274336081199238   1.0
C10   C   0.453171997841373   0.584595162735013   0.397613209688863   1.0
N12   N   0.606118479038813   0.544801822347999   0.512278621568669   1.0
