data_1
_audit_creation_method   'Generated by vasp2cif'
_cell_length_a    8.73394003464
_cell_length_b    4.61054397434
_cell_length_c    6.44421305727
_cell_angle_alpha    86.8794484174
_cell_angle_beta    95.7516696742
_cell_angle_gamma    91.3862015543
_symmetry_space_group_name_H-M    'P 1'
loop_
_atom_site_label
_atom_site_type_symbol
_atom_site_fract_x
_atom_site_fract_y
_atom_site_fract_z
_atom_site_occupancy
H4   H   0.428677098485203   0.024170690812951   0.305415540055058   1.0
H5   H   0.592363308595338   0.114147102659942   0.453825514141599   1.0
H6   H   0.497596224716581   0.362990765251780   0.298896887949837   1.0
H7   H   0.370810790496797   0.045169728613644   0.666380353367664   1.0
H8   H   0.449138343155134   0.406545155984439   0.668653675997497   1.0
H9   H   0.275901204983995   0.328026192887947   0.504291370205884   1.0
C10   C   0.386513816481518   0.246076641608070   0.573106587550093   1.0
N12   N   0.482334092451204   0.181751918385146   0.397612152043294   1.0
