data_1
_audit_creation_method   'Generated by vasp2cif'
_cell_length_a    8.45051944815
_cell_length_b    4.79444314513
_cell_length_c    8.07768492325
_cell_angle_alpha    53.7641506638
_cell_angle_beta    100.055054153
_cell_angle_gamma    106.840163734
_symmetry_space_group_name_H-M    'P 1'
loop_
_atom_site_label
_atom_site_type_symbol
_atom_site_fract_x
_atom_site_fract_y
_atom_site_fract_z
_atom_site_occupancy
H4   H   0.615412917490421   0.518510887923274   0.551795173785212   1.0
H5   H   0.437105421202459   0.624522786106124   0.426524144108242   1.0
H6   H   0.441648504165823   0.359955453228556   0.686988781380029   1.0
H7   H   0.485748333096057   0.179051736788592   0.406258689741395   1.0
H8   H   0.498870344870483   0.898907982236869   0.682626671585411   1.0
H9   H   0.305975658754388   0.007661413033403   0.558743265239447   1.0
C10   C   0.440289233553965   0.098961795253330   0.550053783907815   1.0
N12   N   0.487348085930614   0.424436121626980   0.554203860210270   1.0
