data_1
_audit_creation_method   'Generated by vasp2cif'
_cell_length_a    6.49446576027
_cell_length_b    6.50256156478
_cell_length_c    6.51393290171
_cell_angle_alpha    87.5437029993
_cell_angle_beta    93.0727449606
_cell_angle_gamma    86.3251412331
_symmetry_space_group_name_H-M    'P 1'
loop_
_atom_site_label
_atom_site_type_symbol
_atom_site_fract_x
_atom_site_fract_y
_atom_site_fract_z
_atom_site_occupancy
C1   C   0.754792629223154   0.285197647005717   0.634514186973227   1.0
H2   H   0.858729931158194   0.167503160440504   0.368667264463063   1.0
H3   H   0.998304778410848   0.443995085428071   0.537955783385208   1.0
H4   H   0.507550542575316   0.164682009030820   0.769004376573903   1.0
H5   H   0.614865670881592   0.364785192507675   0.897963614688784   1.0
H6   H   0.880128556261063   0.540679419837154   0.750667444517127   1.0
H7   H   0.665403587673424   0.034126148224757   0.479321305174985   1.0
N11   N   0.757767678652030   0.153891553304305   0.481294577218598   1.0
N12   N   0.888445243825593   0.433840478889593   0.641918700480005   1.0
N13   N   0.618500969736488   0.267161586536318   0.780835437460055   1.0
