data_1
_audit_creation_method   'Generated by vasp2cif'
_cell_length_a    9.97432534923
_cell_length_b    4.48595909138
_cell_length_c    6.65502738033
_cell_angle_alpha    76.8742606355
_cell_angle_beta    96.4463382062
_cell_angle_gamma    116.650609797
_symmetry_space_group_name_H-M    'P 1'
loop_
_atom_site_label
_atom_site_type_symbol
_atom_site_fract_x
_atom_site_fract_y
_atom_site_fract_z
_atom_site_occupancy
C1   C   0.467632671962548   0.210050511214256   0.527393170129479   1.0
H2   H   0.376129595109141   0.354789995805170   0.727503669290193   1.0
H3   H   0.568227140458639   0.556933527556247   0.716998500255436   1.0
H4   H   0.597732146833138   0.124900229701673   0.348668683513090   1.0
H5   H   0.696495462422938   0.430551908078470   0.497438193961258   1.0
H6   H   0.237788194833925   0.960144115251815   0.513709507518435   1.0
H7   H   0.330773809344692   0.845096314479790   0.362227752318738   1.0
N11   N   0.470113516186132   0.412890035797780   0.651059333030275   1.0
N12   N   0.336186043376024   0.974450172642555   0.472672977937066   1.0
N13   N   0.596730205294719   0.244956187748848   0.460760339918572   1.0
