data_1
_audit_creation_method   'Generated by vasp2cif'
_cell_length_a    6.09375446831
_cell_length_b    6.64480274131
_cell_length_c    6.47462016388
_cell_angle_alpha    98.4482933006
_cell_angle_beta    72.6689378784
_cell_angle_gamma    77.0203859915
_symmetry_space_group_name_H-M    'P 1'
loop_
_atom_site_label
_atom_site_type_symbol
_atom_site_fract_x
_atom_site_fract_y
_atom_site_fract_z
_atom_site_occupancy
H4   H   0.301211709842494   0.550343873353105   0.418992326146595   1.0
H5   H   0.592088261826470   0.558300296717423   0.364780420924808   1.0
H6   H   0.414397440950745   0.607554505094102   0.632849847281767   1.0
H7   H   0.391642153835863   0.246088469187591   0.518180627468294   1.0
N9   N   0.448921216705009   0.521789259951008   0.472754712228097   1.0
