data_1
_audit_creation_method   'Generated by vasp2cif'
_cell_length_a    6.45617939759
_cell_length_b    4.72663754795
_cell_length_c    8.119690064
_cell_angle_alpha    106.570999634
_cell_angle_beta    87.101193599
_cell_angle_gamma    91.6922151494
_symmetry_space_group_name_H-M    'P 1'
loop_
_atom_site_label
_atom_site_type_symbol
_atom_site_fract_x
_atom_site_fract_y
_atom_site_fract_z
_atom_site_occupancy
H4   H   0.497433669379262   0.910713652610895   0.380163026256120   1.0
H5   H   0.624587778877526   0.946746449263522   0.565953105918545   1.0
H6   H   0.370934319069320   0.050658082810415   0.578582195238788   1.0
H7   H   0.288099302704794   0.566335563637310   0.448434133951615   1.0
N9   N   0.482183251685434   0.902734135115750   0.508283018455650   1.0
