data_1
_audit_creation_method   'Generated by vasp2cif'
_cell_length_a    8.11625272435
_cell_length_b    4.75445283334
_cell_length_c    6.44499496392
_cell_angle_alpha    89.5476783399
_cell_angle_beta    92.2004534077
_cell_angle_gamma    72.6376064077
_symmetry_space_group_name_H-M    'P 1'
loop_
_atom_site_label
_atom_site_type_symbol
_atom_site_fract_x
_atom_site_fract_y
_atom_site_fract_z
_atom_site_occupancy
H4   H   0.437388349155995   0.369340124436306   0.614353668985700   1.0
H5   H   0.624119507895195   0.218737004024142   0.487737058420720   1.0
H6   H   0.635694017298128   0.315215543173210   0.742211720065434   1.0
H7   H   0.505322521985363   0.964219591529250   0.821881860951173   1.0
N9   N   0.566119645935792   0.234420717334274   0.630038726022775   1.0
