data_1
_audit_creation_method   'Generated by vasp2cif'
_cell_length_a    6.45155113497
_cell_length_b    4.65476142726
_cell_length_c    8.17958071044
_cell_angle_alpha    105.852731893
_cell_angle_beta    86.167344831
_cell_angle_gamma    92.9232297118
_symmetry_space_group_name_H-M    'P 1'
loop_
_atom_site_label
_atom_site_type_symbol
_atom_site_fract_x
_atom_site_fract_y
_atom_site_fract_z
_atom_site_occupancy
H4   H   0.459790956453483   0.096907318310469   0.489126192400738   1.0
H5   H   0.489230775006277   0.972504842336027   0.660483253869461   1.0
H6   H   0.241397937431643   0.035267003518919   0.614992396150241   1.0
H7   H   0.346765103883351   0.655892359077900   0.348835136112995   1.0
N9   N   0.389537356670337   0.967202620479737   0.564297404438426   1.0
