data_1
_audit_creation_method   'Generated by vasp2cif'
_cell_length_a    8.25570469299
_cell_length_b    4.67201239709
_cell_length_c    6.57560564258
_cell_angle_alpha    87.6639508832
_cell_angle_beta    76.1412833422
_cell_angle_gamma    74.6673633508
_symmetry_space_group_name_H-M    'P 1'
loop_
_atom_site_label
_atom_site_type_symbol
_atom_site_fract_x
_atom_site_fract_y
_atom_site_fract_z
_atom_site_occupancy
H4   H   0.442713774259524   0.948554513764364   0.631031883671909   1.0
H5   H   0.595622660685173   0.141052156603308   0.534672472417427   1.0
H6   H   0.468405429863374   0.206603938758761   0.783909601215115   1.0
H7   H   0.624678892004326   0.823471900702714   0.889527946361198   1.0
N9   N   0.532945346683732   0.046246093783445   0.666252183380848   1.0
