data_1
_audit_creation_method   'Generated by vasp2cif'
_cell_length_a    6.61412543642
_cell_length_b    4.66920134461
_cell_length_c    8.14093529498
_cell_angle_alpha    104.423605605
_cell_angle_beta    100.980857522
_cell_angle_gamma    83.1171120362
_symmetry_space_group_name_H-M    'P 1'
loop_
_atom_site_label
_atom_site_type_symbol
_atom_site_fract_x
_atom_site_fract_y
_atom_site_fract_z
_atom_site_occupancy
H4   H   0.219856214823465   0.061410792370928   0.547354044860974   1.0
H5   H   0.464022648046175   0.086094105619301   0.665541476609566   1.0
H6   H   0.302288639236758   0.865045014783778   0.705114681059425   1.0
H7   H   0.317636321648153   0.594455434521925   0.421306037473822   1.0
N9   N   0.344247447430387   0.947877523741433   0.609415632174030   1.0
