data_1
_audit_creation_method   'Generated by vasp2cif'
_cell_length_a    8.29774939955
_cell_length_b    4.66212152245
_cell_length_c    6.3977954519
_cell_angle_alpha    89.892051729
_cell_angle_beta    91.0371740838
_cell_angle_gamma    73.3497392145
_symmetry_space_group_name_H-M    'P 1'
loop_
_atom_site_label
_atom_site_type_symbol
_atom_site_fract_x
_atom_site_fract_y
_atom_site_fract_z
_atom_site_occupancy
H4   H   0.556595087375399   0.507919155818982   0.301731462591341   1.0
H5   H   0.624819966643585   0.566328785292058   0.545232242260887   1.0
H6   H   0.465363905017838   0.337662248806460   0.680017614269453   1.0
H7   H   0.435864481723186   0.788800996778903   0.451527882349431   1.0
N9   N   0.518065998660724   0.574919423170542   0.453684036324326   1.0
