data_1
_audit_creation_method   'Generated by vasp2cif'
_cell_length_a    6.49824182462
_cell_length_b    6.48788689381
_cell_length_c    6.44508063093
_cell_angle_alpha    83.8061283056
_cell_angle_beta    85.5718732033
_cell_angle_gamma    86.5803118223
_symmetry_space_group_name_H-M    'P 1'
loop_
_atom_site_label
_atom_site_type_symbol
_atom_site_fract_x
_atom_site_fract_y
_atom_site_fract_z
_atom_site_occupancy
N5   N   0.088288726021787   0.755363399532690   0.867486926930859   1.0
N6   N   0.227125627909785   0.928689032291075   0.119203143485656   1.0
H7   H   0.203667786446161   0.641689309945029   0.867700763036027   1.0
H8   H   0.353403593761890   0.828825531577905   0.134069393890904   1.0
H9   H   0.975391532829299   0.751964017178494   0.766815741192431   1.0
H10   H   0.209941023889570   0.045308535538197   0.214421096445307   1.0
H11   H   0.955108171866542   0.020389623848445   0.982917552600796   1.0
C12   C   0.084459832816094   0.906401225214637   0.989480269828910   1.0
