data_1
_audit_creation_method   'Generated by vasp2cif'
_cell_length_a    6.76459108644
_cell_length_b    6.36358805362
_cell_length_c    6.36234671491
_cell_angle_alpha    92.6896283186
_cell_angle_beta    90.3686053302
_cell_angle_gamma    89.882669887
_symmetry_space_group_name_H-M    'P 1'
loop_
_atom_site_label
_atom_site_type_symbol
_atom_site_fract_x
_atom_site_fract_y
_atom_site_fract_z
_atom_site_occupancy
N5   N   0.179738061824075   0.852897285431396   0.143153623273100   1.0
N6   N   0.836058409196710   0.842663005123647   0.161956046005948   1.0
H7   H   0.201928421156410   0.743760865514048   0.252832728619445   1.0
H8   H   0.832517887080307   0.732440193806390   0.273088869285679   1.0
H9   H   0.300415836303976   0.915045044078902   0.075026823928496   1.0
H10   H   0.705574336143506   0.899604899238639   0.108951182207100   1.0
H11   H   0.991509088100351   0.031507915631437   0.966921784561166   1.0
C12   C   0.001872278600253   0.914126927427375   0.085473869774503   1.0
