data_1
_audit_creation_method   'Generated by vasp2cif'
_cell_length_a    6.36392571171
_cell_length_b    6.69949002842
_cell_length_c    6.42217713345
_cell_angle_alpha    101.132319993
_cell_angle_beta    95.3312493863
_cell_angle_gamma    76.9126225664
_symmetry_space_group_name_H-M    'P 1'
loop_
_atom_site_label
_atom_site_type_symbol
_atom_site_fract_x
_atom_site_fract_y
_atom_site_fract_z
_atom_site_occupancy
N5   N   0.903249040886941   0.697742298642197   0.958874686951802   1.0
N6   N   0.190300469824820   0.856932298080764   0.679057478808595   1.0
H7   H   0.098192940558029   0.801694732039529   0.768688763924516   1.0
H8   H   0.090004666556553   0.961735465046374   0.597444250058636   1.0
H9   H   0.849290429060041   0.565371768506949   0.964399033664492   1.0
H10   H   0.288814729535112   0.937970816627640   0.779967497850429   1.0
H11   H   0.861765032109879   0.015970240594378   0.067279809939464   1.0
C12   C   0.816782167493045   0.867894405900600   0.063725075696446   1.0
