data_1
_audit_creation_method   'Generated by vasp2cif'
_cell_length_a    6.83311217037
_cell_length_b    6.74352171526
_cell_length_c    6.66236677496
_cell_angle_alpha    90.019241918
_cell_angle_beta    89.9895517529
_cell_angle_gamma    90.0332834398
_symmetry_space_group_name_H-M    'P 1'
loop_
_atom_site_label
_atom_site_type_symbol
_atom_site_fract_x
_atom_site_fract_y
_atom_site_fract_z
_atom_site_occupancy
C1   C   0.321106965637164   0.357096217602248   0.482766196010473   1.0
C2   C   0.588789668974982   0.527353835688537   0.298537630804646   1.0
C3   C   0.586169799211653   0.528161763197744   0.670138410378421   1.0
C4   C   0.339814047552586   0.723673008822217   0.482195448183042   1.0
H5   H   0.440546902145790   0.849045198851996   0.482806988081705   1.0
H6   H   0.250314445936333   0.724266488186899   0.347263415829062   1.0
H7   H   0.232056905065178   0.365047409868936   0.347666040091347   1.0
H8   H   0.495668245417917   0.534038767295378   0.165960918539518   1.0
H9   H   0.491170448286120   0.535602197660715   0.801326725880756   1.0
H10   H   0.684479260161126   0.655042214065340   0.665406581538377   1.0
H11   H   0.686977333119501   0.654302266913874   0.304138027338460   1.0
H12   H   0.248238071507863   0.724731839769845   0.615708544267484   1.0
H13   H   0.668660676970454   0.390196827051810   0.668837854983721   1.0
H14   H   0.408404262953319   0.221932987379546   0.484172020340026   1.0
H15   H   0.671359156002524   0.389443396881276   0.301652264699946   1.0
H16   H   0.229524940270999   0.366173386352059   0.616051675681902   1.0
N20   N   0.458943571817329   0.533817739517694   0.483412511491934   1.0
