data_1
_audit_creation_method   'Generated by vasp2cif'
_cell_length_a    6.655442336
_cell_length_b    6.8394725301
_cell_length_c    6.74546601561
_cell_angle_alpha    90.038194665
_cell_angle_beta    89.918065486
_cell_angle_gamma    89.8321634535
_symmetry_space_group_name_H-M    'P 1'
loop_
_atom_site_label
_atom_site_type_symbol
_atom_site_fract_x
_atom_site_fract_y
_atom_site_fract_z
_atom_site_occupancy
C1   C   0.411736942226909   0.351595080256821   0.350436511679440   1.0
C2   C   0.609849271337012   0.593620935518217   0.541092144859427   1.0
C3   C   0.412563503405103   0.339659378676302   0.717201657482640   1.0
C4   C   0.238170691758711   0.611099474884625   0.542887778105083   1.0
H5   H   0.244841110227306   0.695801248109191   0.679358339683667   1.0
H6   H   0.101828817788224   0.523358988114978   0.538084317161264   1.0
H7   H   0.272932583940310   0.268058706851079   0.351645296456269   1.0
H8   H   0.611180949127522   0.679839092130408   0.676738895387942   1.0
H9   H   0.272687950893456   0.257872068038616   0.712654704352303   1.0
H10   H   0.420365760311355   0.429153266571156   0.850660161973579   1.0
H11   H   0.737286088926375   0.493250426677697   0.536917767595511   1.0
H12   H   0.247313666332047   0.706775615398598   0.414390918880486   1.0
H13   H   0.540875289579404   0.241118869076097   0.708032183326388   1.0
H14   H   0.416501741147854   0.449694877030254   0.223263070414326   1.0
H15   H   0.609743100970860   0.688312568859310   0.411551250270392   1.0
H16   H   0.541307877254553   0.254335699548221   0.350963878077508   1.0
N20   N   0.418061739681015   0.474011808089273   0.538086655120097   1.0
