data_1
_audit_creation_method   'Generated by vasp2cif'
_cell_length_a    6.50683696715
_cell_length_b    6.32345978502
_cell_length_c    6.48238403196
_cell_angle_alpha    92.0441257488
_cell_angle_beta    87.417828977
_cell_angle_gamma    90.1318385092
_symmetry_space_group_name_H-M    'P 1'
loop_
_atom_site_label
_atom_site_type_symbol
_atom_site_fract_x
_atom_site_fract_y
_atom_site_fract_z
_atom_site_occupancy
H4   H   0.298564856670659   0.567597546611452   0.540388116656466   1.0
H5   H   0.516202889886571   0.674103061196611   0.453604766908001   1.0
H6   H   0.487757865037779   0.360196066724619   0.763081435852001   1.0
H7   H   0.701673521276689   0.483236357878838   0.680263185765142   1.0
H8   H   0.518143639950893   0.622573104945836   0.815145300485405   1.0
N10   N   0.451186815511264   0.536126904227025   0.504815001197720   1.0
N11   N   0.544366045904866   0.500067927422798   0.704327640317160   1.0
