data_1
_audit_creation_method   'Generated by vasp2cif'
_cell_length_a    8.88229430027
_cell_length_b    6.32400460709
_cell_length_c    6.4652958967
_cell_angle_alpha    94.737284555
_cell_angle_beta    47.0063484942
_cell_angle_gamma    97.2577517586
_symmetry_space_group_name_H-M    'P 1'
loop_
_atom_site_label
_atom_site_type_symbol
_atom_site_fract_x
_atom_site_fract_y
_atom_site_fract_z
_atom_site_occupancy
H4   H   0.532229330171063   0.654706708928188   0.139858787369995   1.0
H5   H   0.452522583354693   0.647260106610716   0.971831377213192   1.0
H6   H   0.750982632393324   0.404068053628045   0.861174041310129   1.0
H7   H   0.644826043500807   0.337160917730557   0.723118137334353   1.0
H8   H   0.792849663993110   0.572344274231504   0.636200464765366   1.0
N10   N   0.491290622112572   0.553353514818745   0.049162562814409   1.0
N11   N   0.683257716094751   0.462717310512801   0.798368645104944   1.0
