data_1
_audit_creation_method   'Generated by vasp2cif'
_cell_length_a    4.36779576752
_cell_length_b    6.58154750482
_cell_length_c    8.79656458687
_cell_angle_alpha    83.1626179552
_cell_angle_beta    105.916545799
_cell_angle_gamma    104.991641437
_symmetry_space_group_name_H-M    'P 1'
loop_
_atom_site_label
_atom_site_type_symbol
_atom_site_fract_x
_atom_site_fract_y
_atom_site_fract_z
_atom_site_occupancy
H4   H   0.252544310457047   0.453794992016007   0.486558877299522   1.0
H5   H   0.272389291924846   0.677928863258721   0.377489653901584   1.0
H6   H   0.582374371877528   0.478796551218629   0.304221544097878   1.0
H7   H   0.248716824600208   0.274718113912627   0.277141139723987   1.0
H8   H   0.240410490577659   0.492703926170144   0.157238264664464   1.0
N10   N   0.171311588847772   0.518477341484754   0.374985030658991   1.0
N11   N   0.327305640895290   0.437384055292078   0.272976127912592   1.0
