data_1
_audit_creation_method   'Generated by vasp2cif'
_cell_length_a    8.32940573429
_cell_length_b    6.65527052059
_cell_length_c    4.61761999065
_cell_angle_alpha    101.27638602
_cell_angle_beta    76.4816332243
_cell_angle_gamma    101.424598618
_symmetry_space_group_name_H-M    'P 1'
loop_
_atom_site_label
_atom_site_type_symbol
_atom_site_fract_x
_atom_site_fract_y
_atom_site_fract_z
_atom_site_occupancy
H4   H   0.503310911392866   0.479235745454041   0.124008653180716   1.0
H5   H   0.615961035745244   0.706758746984129   0.055942002815961   1.0
H6   H   0.792173035040690   0.440842035895990   0.931684588985135   1.0
H7   H   0.666048784425115   0.312938040412824   0.693003490913433   1.0
H8   H   0.780964964928856   0.544412293055032   0.635125026731274   1.0
N10   N   0.567355767377606   0.563087592766600   0.955982620555183   1.0
N11   N   0.710983480941522   0.457983311599435   0.799600459545253   1.0
