data_1
_audit_creation_method   'Generated by vasp2cif'
_cell_length_a    8.62892922538
_cell_length_b    4.43840532977
_cell_length_c    6.45167439951
_cell_angle_alpha    89.267131663
_cell_angle_beta    90.0359487135
_cell_angle_gamma    74.3202433249
_symmetry_space_group_name_H-M    'P 1'
loop_
_atom_site_label
_atom_site_type_symbol
_atom_site_fract_x
_atom_site_fract_y
_atom_site_fract_z
_atom_site_occupancy
H4   H   0.542334824029301   0.499115568923415   0.674143804413251   1.0
H5   H   0.475355236154723   0.563246440727348   0.433809956159488   1.0
H6   H   0.781734422347265   0.588336937181799   0.592497125013384   1.0
H7   H   0.738607448539436   0.603543741698692   0.337101974199349   1.0
H8   H   0.638872553481733   0.896806786109651   0.494673949840498   1.0
N10   N   0.576104766977156   0.463431288715033   0.521688174008542   1.0
N11   N   0.689294580055366   0.656436800452174   0.484161454783174   1.0
