data_1
_audit_creation_method   'Generated by vasp2cif'
_cell_length_a    8.25512358218
_cell_length_b    4.89593908265
_cell_length_c    6.38671101869
_cell_angle_alpha    90.3048136145
_cell_angle_beta    105.159344301
_cell_angle_gamma    72.9046059754
_symmetry_space_group_name_H-M    'P 1'
loop_
_atom_site_label
_atom_site_type_symbol
_atom_site_fract_x
_atom_site_fract_y
_atom_site_fract_z
_atom_site_occupancy
H4   H   0.509553014784338   0.462620517415999   0.590412609500028   1.0
H5   H   0.527385178258996   0.786757969897607   0.601673578479975   1.0
H6   H   0.797520883814030   0.449798870508921   0.591016555929542   1.0
H7   H   0.687886885499040   0.356125395463671   0.348312368725168   1.0
H8   H   0.709848666360848   0.683720255811274   0.365746861718506   1.0
N10   N   0.519375653112171   0.626049431589117   0.498565050051234   1.0
N11   N   0.691948279518066   0.520604228480828   0.451085422260498   1.0
