data_1
_audit_creation_method   'Generated by vasp2cif'
_cell_length_a    8.63352969628
_cell_length_b    4.40434545472
_cell_length_c    6.41806924828
_cell_angle_alpha    89.8770365324
_cell_angle_beta    89.9166352283
_cell_angle_gamma    76.3611192776
_symmetry_space_group_name_H-M    'P 1'
loop_
_atom_site_label
_atom_site_type_symbol
_atom_site_fract_x
_atom_site_fract_y
_atom_site_fract_z
_atom_site_occupancy
H4   H   0.560972590536828   0.462736631508918   0.645855462446789   1.0
H5   H   0.568237335561236   0.461931300085666   0.389167182774521   1.0
H6   H   0.300198162111677   0.759744846389779   0.638397112656477   1.0
H7   H   0.420401518074620   0.952692635774419   0.510488521658701   1.0
H8   H   0.305546405440566   0.756525103157820   0.375654459354948   1.0
N10   N   0.494556844313053   0.453607314813027   0.514096740811020   1.0
N11   N   0.373828651987175   0.755053070885005   0.509366957500347   1.0
