data_1
_audit_creation_method   'Generated by vasp2cif'
_cell_length_a    6.60894455222
_cell_length_b    4.48623472658
_cell_length_c    8.45193418035
_cell_angle_alpha    104.650695305
_cell_angle_beta    86.7235807338
_cell_angle_gamma    85.2672423054
_symmetry_space_group_name_H-M    'P 1'
loop_
_atom_site_label
_atom_site_type_symbol
_atom_site_fract_x
_atom_site_fract_y
_atom_site_fract_z
_atom_site_occupancy
H4   H   0.502673234267839   0.896455172001161   0.386645737629031   1.0
H5   H   0.309849921756886   0.990396687602335   0.528837226556483   1.0
H6   H   0.714664818813226   0.167288525127539   0.556576730020687   1.0
H7   H   0.502576563800410   0.411329123149308   0.569547065128226   1.0
H8   H   0.542153427628122   0.229810109492710   0.720121364463644   1.0
N10   N   0.464250943297067   0.928589062665012   0.509883767257172   1.0
N11   N   0.560198773250363   0.205959489237308   0.593704121732280   1.0
