data_1
_audit_creation_method   'Generated by vasp2cif'
_cell_length_a    8.60065864785
_cell_length_b    4.45194377351
_cell_length_c    6.46749950869
_cell_angle_alpha    89.4949327028
_cell_angle_beta    90.1859709554
_cell_angle_gamma    74.2585472589
_symmetry_space_group_name_H-M    'P 1'
loop_
_atom_site_label
_atom_site_type_symbol
_atom_site_fract_x
_atom_site_fract_y
_atom_site_fract_z
_atom_site_occupancy
H4   H   0.353190169594805   0.147455531999513   0.444800400005638   1.0
H5   H   0.430173773606417   0.076376747335604   0.679806890352608   1.0
H6   H   0.615179228993819   0.191548533056946   0.334812507952155   1.0
H7   H   0.517374025306173   0.481737317809978   0.495472505032524   1.0
H8   H   0.664369321792517   0.176407926543766   0.587776801718597   1.0
N10   N   0.457932873262926   0.046865642309279   0.525520712237443   1.0
N11   N   0.568916797397235   0.242514331503862   0.483270019772771   1.0
