data_1
_audit_creation_method   'Generated by vasp2cif'
_cell_length_a    8.17425929189
_cell_length_b    6.94990954722
_cell_length_c    4.6841891755
_cell_angle_alpha    72.7900526898
_cell_angle_beta    105.862755986
_cell_angle_gamma    110.126340611
_symmetry_space_group_name_H-M    'P 1'
loop_
_atom_site_label
_atom_site_type_symbol
_atom_site_fract_x
_atom_site_fract_y
_atom_site_fract_z
_atom_site_occupancy
N5   N   0.449955703944056   0.427022461119215   0.781156735378900   1.0
H6   H   0.339096713396465   0.399907567390805   0.610556580661353   1.0
H7   H   0.443993457520783   0.290171345676122   0.948068633077199   1.0
H8   H   0.563053389633289   0.463495138264442   0.691182571774583   1.0
H9   H   0.454286213802653   0.548176180131939   0.872283257954862   1.0
