data_1
_audit_creation_method   'Generated by vasp2cif'
_cell_length_a    6.43563850808
_cell_length_b    6.4373462077
_cell_length_c    6.44477278526
_cell_angle_alpha    82.836113193
_cell_angle_beta    83.0519591335
_cell_angle_gamma    83.0637470153
_symmetry_space_group_name_H-M    'P 1'
loop_
_atom_site_label
_atom_site_type_symbol
_atom_site_fract_x
_atom_site_fract_y
_atom_site_fract_z
_atom_site_occupancy
N5   N   0.534803055398925   0.535611701967738   0.588374046634897   1.0
H6   H   0.394070867907182   0.625442910372584   0.557486332328935   1.0
H7   H   0.503127884785478   0.396131163130029   0.680567496158915   1.0
H8   H   0.621900566715809   0.501542446677249   0.447533332006238   1.0
H9   H   0.620440531538016   0.619416321561602   0.667721842520450   1.0
