data_1
_audit_creation_method   'Generated by vasp2cif'
_cell_length_a    4.68303023583
_cell_length_b    6.91296444907
_cell_length_c    8.17740116652
_cell_angle_alpha    70.8585677815
_cell_angle_beta    74.1332769359
_cell_angle_gamma    72.6028171013
_symmetry_space_group_name_H-M    'P 1'
loop_
_atom_site_label
_atom_site_type_symbol
_atom_site_fract_x
_atom_site_fract_y
_atom_site_fract_z
_atom_site_occupancy
N5   N   0.816433409519497   0.463548899910471   0.550597791801984   1.0
H6   H   0.646885852827786   0.435849194985330   0.661231800230780   1.0
H7   H   0.989332984233869   0.328794122020689   0.556250397040614   1.0
H8   H   0.727323658949764   0.494476650018200   0.438687736684202   1.0
H9   H   0.900416342921858   0.588837254627741   0.545478251236055   1.0
