data_1
_audit_creation_method   'Generated by vasp2cif'
_cell_length_a    6.5523714728
_cell_length_b    6.65966522939
_cell_length_c    6.83846915178
_cell_angle_alpha    90.2233737798
_cell_angle_beta    90.1922731183
_cell_angle_gamma    97.4183854965
_symmetry_space_group_name_H-M    'P 1'
loop_
_atom_site_label
_atom_site_type_symbol
_atom_site_fract_x
_atom_site_fract_y
_atom_site_fract_z
_atom_site_occupancy
C1   C   0.623102928109461   0.335657557242350   0.472785166243504   1.0
C2   C   0.385058973670937   0.534034191490619   0.655899576992240   1.0
C3   C   0.396503073186196   0.548832080446061   0.293623253421941   1.0
H4   H   0.713132035540369   0.330395819468116   0.606072899277713   1.0
H5   H   0.478129660352330   0.520789665812245   0.786281982450205   1.0
H6   H   0.497510635086414   0.546251774027816   0.167726054990098   1.0
H7   H   0.332206434865142   0.691427901997450   0.301750385466612   1.0
H8   H   0.321324258740447   0.677101527375079   0.655474744105369   1.0
H9   H   0.636593121873339   0.648612805308119   0.485033724354906   1.0
H10   H   0.273832996563065   0.421774238415203   0.287559614004891   1.0
H11   H   0.502948919695484   0.206246850796198   0.464124963751828   1.0
H12   H   0.262631988422896   0.406975091712951   0.645361005789148   1.0
H13   H   0.721499104423664   0.341902642708334   0.344552845498278   1.0
N17   N   0.520384994722221   0.526862011330564   0.477669895123981   1.0
