data_1
_audit_creation_method   'Generated by vasp2cif'
_cell_length_a    6.67131240985
_cell_length_b    6.59294787778
_cell_length_c    6.72053629399
_cell_angle_alpha    94.3785096919
_cell_angle_beta    87.7260777149
_cell_angle_gamma    85.3401512989
_symmetry_space_group_name_H-M    'P 1'
loop_
_atom_site_label
_atom_site_type_symbol
_atom_site_fract_x
_atom_site_fract_y
_atom_site_fract_z
_atom_site_occupancy
C1   C   0.352637956828126   0.337991540364243   0.484777949720112   1.0
C2   C   0.542676378754116   0.603677020323254   0.331215581283281   1.0
C3   C   0.647869777225260   0.472391382003693   0.653146738143207   1.0
H4   H   0.218880160775754   0.385951812203295   0.406918911752086   1.0
H5   H   0.412624063854572   0.634864721605929   0.242432228393099   1.0
H6   H   0.588850611687960   0.432431157270138   0.797086339972061   1.0
H7   H   0.732729153669794   0.605943757296906   0.670755569056354   1.0
H8   H   0.615900912505644   0.742553213158004   0.368296529733037   1.0
H9   H   0.377047054742178   0.635519383434513   0.600097174024960   1.0
H10   H   0.741138040664261   0.343169611027193   0.577682570692012   1.0
H11   H   0.447363679898082   0.222296797315927   0.391618409769372   1.0
H12   H   0.649648194802566   0.488225323179321   0.252193987323409   1.0
H13   H   0.311828589005579   0.282153674869178   0.627457617947421   1.0
N17   N   0.472368514873679   0.521502684254138   0.523922757936866   1.0
