data_1
_audit_creation_method   'Generated by vasp2cif'
_cell_length_a    6.69376931665
_cell_length_b    6.59527461311
_cell_length_c    6.6867182055
_cell_angle_alpha    94.1706345349
_cell_angle_beta    92.9218514347
_cell_angle_gamma    94.4388837074
_symmetry_space_group_name_H-M    'P 1'
loop_
_atom_site_label
_atom_site_type_symbol
_atom_site_fract_x
_atom_site_fract_y
_atom_site_fract_z
_atom_site_occupancy
C1   C   0.479679143168540   0.336368017003711   0.642336811951013   1.0
C2   C   0.343482554647232   0.618090699590910   0.459000888670072   1.0
C3   C   0.649350942376391   0.460040509045531   0.344500889792602   1.0
H4   H   0.411896938538347   0.389815214149294   0.779102782013203   1.0
H5   H   0.259413755339512   0.650632481415469   0.590726885357885   1.0
H6   H   0.791493303187531   0.409164483243324   0.399814274373198   1.0
H7   H   0.673627547062981   0.592724982609265   0.258992333540879   1.0
H8   H   0.389820087946659   0.757916016015743   0.390658896151447   1.0
H9   H   0.618629237238346   0.624924024230266   0.616523628000054   1.0
H10   H   0.562446767936147   0.336213827127409   0.253647021076754   1.0
H11   H   0.373329420032108   0.230300664577753   0.550199065606422   1.0
H12   H   0.254989279643110   0.512376557883870   0.349377432290657   1.0
H13   H   0.617460528067342   0.266200779329045   0.677230160449650   1.0
N17   N   0.530123011164834   0.518399492954082   0.523201024422356   1.0
