data_1
_audit_creation_method   'Generated by vasp2cif'
_cell_length_a    6.67757414297
_cell_length_b    6.70277500263
_cell_length_c    6.58609749426
_cell_angle_alpha    93.6263277055
_cell_angle_beta    94.6348646925
_cell_angle_gamma    93.0723177272
_symmetry_space_group_name_H-M    'P 1'
loop_
_atom_site_label
_atom_site_type_symbol
_atom_site_fract_x
_atom_site_fract_y
_atom_site_fract_z
_atom_site_occupancy
C1   C   0.646927056415954   0.619085009863483   0.410623269182842   1.0
C2   C   0.349613006557249   0.745124185979861   0.575447634274568   1.0
C3   C   0.508622268026969   0.439987930387801   0.695746242806770   1.0
H4   H   0.725014337236857   0.484290445218548   0.377522286166211   1.0
H5   H   0.326302700228574   0.832507502293168   0.443073665183391   1.0
H6   H   0.568534879730450   0.300458074100021   0.640789313485932   1.0
H7   H   0.371196150670933   0.411272797136448   0.769392606380073   1.0
H8   H   0.206547763357598   0.695256974371873   0.629368865793005   1.0
H9   H   0.365100307420541   0.473649452731045   0.409221485301380   1.0
H10   H   0.621350801431326   0.526760050666006   0.799525141579416   1.0
H11   H   0.600810832778059   0.688873879858200   0.270717682270266   1.0
H12   H   0.442522058593610   0.831610464653032   0.697867210488248   1.0
H13   H   0.741365373636100   0.725248794792293   0.514391617262618   1.0
N17   N   0.459850634205033   0.562140034471071   0.514310144959367   1.0
