data_1
_audit_creation_method   'Generated by vasp2cif'
_cell_length_a    4.9229722089
_cell_length_b    8.30808351179
_cell_length_c    7.96848267328
_cell_angle_alpha    104.278391226
_cell_angle_beta    73.1863564264
_cell_angle_gamma    88.8206630776
_symmetry_space_group_name_H-M    'P 1'
loop_
_atom_site_label
_atom_site_type_symbol
_atom_site_fract_x
_atom_site_fract_y
_atom_site_fract_z
_atom_site_occupancy
C1   C   0.478979090048895   0.578809722839353   0.399713261558880   1.0
C2   C   0.736108106536179   0.774212181180680   0.579127685733539   1.0
C3   C   0.721570837030157   0.475333153025339   0.592558407107084   1.0
H4   H   0.367167630357606   0.688385985794760   0.388531580108868   1.0
H5   H   0.914817997577586   0.748030710614415   0.454734506692709   1.0
H6   H   0.579787734511747   0.376611308261410   0.600659537830005   1.0
H7   H   0.782952907921029   0.512241910403581   0.716466161628368   1.0
H8   H   0.599022703081246   0.882339161203902   0.587643579329431   1.0
H9   H   0.382768109305793   0.657293007595264   0.684028582211219   1.0
H10   H   0.909158976814567   0.434233068522417   0.473787247046573   1.0
H11   H   0.671572645438332   0.540158783464555   0.283960815115357   1.0
H12   H   0.808384537529804   0.795089423411760   0.699082590332821   1.0
H13   H   0.346141364425492   0.475876314176993   0.405317555086597   1.0
N17   N   0.565372019269454   0.624339386282657   0.571688127236982   1.0
