data_1
_audit_creation_method   'Generated by vasp2cif'
_cell_length_a    9.29671215756
_cell_length_b    4.97729411471
_cell_length_c    6.50542162943
_cell_angle_alpha    95.9855551888
_cell_angle_beta    95.3400997782
_cell_angle_gamma    94.011306718
_symmetry_space_group_name_H-M    'P 1'
loop_
_atom_site_label
_atom_site_type_symbol
_atom_site_fract_x
_atom_site_fract_y
_atom_site_fract_z
_atom_site_occupancy
C1   C   0.476666736017599   0.533683067155465   0.747540605545751   1.0
C2   C   0.485445483194184   0.831645377288254   0.464066215534068   1.0
C3   C   0.657326902861087   0.475374716873539   0.481932341872415   1.0
H4   H   0.430531984161860   0.691389831151838   0.844253364045791   1.0
H5   H   0.432635368052139   0.982443345056190   0.557254770103150   1.0
H6   H   0.715071682782771   0.351776354376319   0.586057042143267   1.0
H7   H   0.734854368376844   0.593415054067769   0.405019907455838   1.0
H8   H   0.558249229890599   0.923838315441728   0.364866117814586   1.0
H9   H   0.647535251621910   0.803804723314279   0.704713656159065   1.0
H10   H   0.580426983684170   0.352337198219388   0.367701160496196   1.0
H11   H   0.389876392711472   0.408794713701752   0.650475675599104   1.0
H12   H   0.403687775251811   0.691454290256139   0.370614260088864   1.0
H13   H   0.542415860620387   0.412448378822177   0.843501799854565   1.0
N17   N   0.573019471778416   0.670691680544955   0.607437141994453   1.0
