data_1
_audit_creation_method   'Generated by vasp2cif'
_cell_length_a    6.51734367841
_cell_length_b    4.96394184606
_cell_length_c    9.32157267098
_cell_angle_alpha    93.8906719606
_cell_angle_beta    84.5027841667
_cell_angle_gamma    83.8653420224
_symmetry_space_group_name_H-M    'P 1'
loop_
_atom_site_label
_atom_site_type_symbol
_atom_site_fract_x
_atom_site_fract_y
_atom_site_fract_z
_atom_site_occupancy
C1   C   0.285354206946359   0.523023807155681   0.484454554926067   1.0
C2   C   0.571660055351984   0.815610131907938   0.496550038313124   1.0
C3   C   0.540619707989762   0.464270033221538   0.670856675536918   1.0
H4   H   0.194078922720131   0.681219382339776   0.434512992719505   1.0
H5   H   0.483457235396060   0.966607674443281   0.440510407754303   1.0
H6   H   0.432499394819644   0.343055605892481   0.726531908142363   1.0
H7   H   0.613745070516117   0.582751785692288   0.749922927077776   1.0
H8   H   0.667994413772931   0.907987877841862   0.570827970474461   1.0
H9   H   0.323580322218874   0.796596810911545   0.654278617346158   1.0
H10   H   0.657608377231419   0.337994501002534   0.597395748503565   1.0
H11   H   0.384320197714132   0.392339263210438   0.400923296843452   1.0
H12   H   0.667295114923483   0.671319375831310   0.417804542222164   1.0
H13   H   0.184304743673373   0.407063853645369   0.549671907101832   1.0
N17   N   0.422353986788899   0.659800481119845   0.582436107886849   1.0
