data_1
_audit_creation_method   'Generated by vasp2cif'
_cell_length_a    6.50881124704
_cell_length_b    4.91936155084
_cell_length_c    9.42378067419
_cell_angle_alpha    94.2377702499
_cell_angle_beta    84.853632409
_cell_angle_gamma    84.4741649367
_symmetry_space_group_name_H-M    'P 1'
loop_
_atom_site_label
_atom_site_type_symbol
_atom_site_fract_x
_atom_site_fract_y
_atom_site_fract_z
_atom_site_occupancy
C1   C   0.318131912868111   0.565125297250169   0.491535675767842   1.0
C2   C   0.611503918242235   0.854735960374654   0.495762064368385   1.0
C3   C   0.569787003969246   0.524523443152283   0.679723643444390   1.0
H4   H   0.230928533199147   0.718369178481638   0.436371887290754   1.0
H5   H   0.527552679101788   0.997461179336739   0.433217277788934   1.0
H6   H   0.457716912639356   0.412452792773998   0.738232707791255   1.0
H7   H   0.645456021770556   0.650687302665922   0.754857310151493   1.0
H8   H   0.707576625863979   0.957615770691767   0.567080506344041   1.0
H9   H   0.360297449009451   0.857336878871429   0.652072117726114   1.0
H10   H   0.684701071396859   0.386686197825121   0.611598789444940   1.0
H11   H   0.415371548331208   0.422960616652745   0.413356643935565   1.0
H12   H   0.706883335602598   0.698812077145917   0.424029609218728   1.0
H13   H   0.213558369532748   0.458581961485521   0.559414902328804   1.0
N17   N   0.457357464125963   0.711626122308303   0.585125326774225   1.0
