data_1
_audit_creation_method   'Generated by vasp2cif'
_cell_length_a    7.04784913935
_cell_length_b    4.88192816834
_cell_length_c    8.78502788298
_cell_angle_alpha    90.5469016496
_cell_angle_beta    94.4957010206
_cell_angle_gamma    75.4554929928
_symmetry_space_group_name_H-M    'P 1'
loop_
_atom_site_label
_atom_site_type_symbol
_atom_site_fract_x
_atom_site_fract_y
_atom_site_fract_z
_atom_site_occupancy
C1   C   0.522493363866396   0.872204308415931   0.415995541793713   1.0
C2   C   0.428152400579769   0.911394502481855   0.687190630387967   1.0
C3   C   0.288059386833254   0.609975765727384   0.503423057350076   1.0
H4   H   0.575249367199113   0.062015191582660   0.434373279690043   1.0
H5   H   0.306362321805174   0.916961860189062   0.756571795660413   1.0
H6   H   0.244344003154225   0.586166777166042   0.383326737035652   1.0
H7   H   0.163992454447836   0.628629670350193   0.573191531986637   1.0
H8   H   0.551002339754262   0.730928553298078   0.718684639896011   1.0
H9   H   0.241696606653711   0.040720543779123   0.487843503931529   1.0
H10   H   0.410581113269167   0.435311387444635   0.543230556315322   1.0
H11   H   0.642123333491554   0.685083141063203   0.443866911408065   1.0
H12   H   0.475142826129869   0.106699418851996   0.699234172144962   1.0
H13   H   0.462039885420168   0.864232207213554   0.298385982154095   1.0
N17   N   0.361322273412775   0.874985051680419   0.521598099209115   1.0
