data_1
_audit_creation_method   'Generated by vasp2cif'
_cell_length_a    6.66635982656
_cell_length_b    6.504721866
_cell_length_c    6.57367324457
_cell_angle_alpha    89.9914178842
_cell_angle_beta    89.5234792786
_cell_angle_gamma    89.3171591178
_symmetry_space_group_name_H-M    'P 1'
loop_
_atom_site_label
_atom_site_type_symbol
_atom_site_fract_x
_atom_site_fract_y
_atom_site_fract_z
_atom_site_occupancy
H4   H   0.382087318781956   0.820639219103420   0.566551195644848   1.0
H5   H   0.662476947340622   0.571665459150793   0.315851895345993   1.0
H6   H   0.634067055627206   0.835596473160521   0.559498908546146   1.0
H7   H   0.352506338939875   0.327365422805464   0.565489899214391   1.0
H8   H   0.673305385278603   0.569203141862438   0.797619871404059   1.0
H9   H   0.407473810920464   0.584598416265798   0.839965395443379   1.0
H10   H   0.395080947097171   0.587534574431544   0.290772367712982   1.0
H11   H   0.616738727749279   0.280896913072844   0.557140846158269   1.0
C12   C   0.526291626273583   0.565847560318083   0.727040688623070   1.0
C13   C   0.518922064123288   0.567598412117114   0.395718611954273   1.0
C14   C   0.499623942700701   0.399125002134362   0.561319410656331   1.0
N16   N   0.514403539359392   0.736435495367957   0.562446431237696   1.0
