data_1
_audit_creation_method   'Generated by vasp2cif'
_cell_length_a    6.57070131099
_cell_length_b    6.52949808554
_cell_length_c    6.61114940321
_cell_angle_alpha    92.7753425628
_cell_angle_beta    86.6161111377
_cell_angle_gamma    90.1890612583
_symmetry_space_group_name_H-M    'P 1'
loop_
_atom_site_label
_atom_site_type_symbol
_atom_site_fract_x
_atom_site_fract_y
_atom_site_fract_z
_atom_site_occupancy
H4   H   0.482471942821846   0.871005031203360   0.324151777125898   1.0
H5   H   0.709024480657781   0.676718016780278   0.623469438871886   1.0
H6   H   0.422138561932840   0.880234755453792   0.575091113733585   1.0
H7   H   0.499219463047858   0.316631903119031   0.421000738174115   1.0
H8   H   0.164898089215761   0.629946233288720   0.511377994807880   1.0
H9   H   0.285823643005123   0.574775476496299   0.264476192249958   1.0
H10   H   0.732631578183309   0.612862407634616   0.355973668801852   1.0
H11   H   0.428156365990262   0.422526186789533   0.668996063345055   1.0
C12   C   0.309088476316823   0.601529158289132   0.425325854182041   1.0
C13   C   0.628502799486633   0.629093938337974   0.490185578165288   1.0
C14   C   0.465936864555268   0.457691807335436   0.511454839369208   1.0
N16   N   0.458931129803787   0.784052312925020   0.449928876077067   1.0
