data_1
_audit_creation_method   'Generated by vasp2cif'
_cell_length_a    6.52767366823
_cell_length_b    6.60701440932
_cell_length_c    6.5810691188
_cell_angle_alpha    93.7682009287
_cell_angle_beta    89.9706760519
_cell_angle_gamma    95.4524256664
_symmetry_space_group_name_H-M    'P 1'
loop_
_atom_site_label
_atom_site_type_symbol
_atom_site_fract_x
_atom_site_fract_y
_atom_site_fract_z
_atom_site_occupancy
H4   H   0.439397550928334   0.497622104356289   0.210965097622292   1.0
H5   H   0.801948723058480   0.570621755903289   0.471286683709863   1.0
H6   H   0.552341233349168   0.727148433768491   0.287165672785868   1.0
H7   H   0.457722550298165   0.370164065624678   0.723370667753663   1.0
H8   H   0.316513208056328   0.754062623380456   0.555973698145124   1.0
H9   H   0.210200620078062   0.498725473071573   0.486276920465251   1.0
H10   H   0.660306419069208   0.328687833038039   0.407616219494713   1.0
H11   H   0.577847010027881   0.621712125842350   0.774018350707607   1.0
C12   C   0.350712225648294   0.597751161074150   0.520204449733768   1.0
C13   C   0.651277689771497   0.484690667150346   0.467693023220455   1.0
C14   C   0.511189399174150   0.511677845040715   0.655842984342968   1.0
N16   N   0.498841336531356   0.586461167776591   0.335526161017732   1.0
