data_1
_audit_creation_method   'Generated by vasp2cif'
_cell_length_a    6.57198471803
_cell_length_b    6.53884139519
_cell_length_c    6.5917739789
_cell_angle_alpha    87.5974948064
_cell_angle_beta    84.1711560344
_cell_angle_gamma    92.4787228321
_symmetry_space_group_name_H-M    'P 1'
loop_
_atom_site_label
_atom_site_type_symbol
_atom_site_fract_x
_atom_site_fract_y
_atom_site_fract_z
_atom_site_occupancy
H4   H   0.378762715607131   0.801477145995456   0.693012479405127   1.0
H5   H   0.401671517863036   0.644387973553769   0.290556833735778   1.0
H6   H   0.569487286307726   0.859766344086516   0.508724671105284   1.0
H7   H   0.491081821408557   0.277650010436922   0.557811412936800   1.0
H8   H   0.773106829075033   0.625304284158368   0.668714683904604   1.0
H9   H   0.549613384285166   0.525411838423061   0.826591019062150   1.0
H10   H   0.235488475028411   0.541609500195257   0.506864152763079   1.0
H11   H   0.676667266685264   0.415794376214848   0.381799350713642   1.0
C12   C   0.613829669982884   0.572183654695195   0.671909294946978   1.0
C13   C   0.393129078836992   0.583495964552426   0.447206996383521   1.0
C14   C   0.553462298440195   0.429487301118108   0.503640839282205   1.0
N16   N   0.482785234822515   0.741240310335613   0.587348976219140   1.0
