data_1
_audit_creation_method   'Generated by vasp2cif'
_cell_length_a    8.97513332282
_cell_length_b    6.62860888688
_cell_length_c    4.81189601732
_cell_angle_alpha    90.2880724011
_cell_angle_beta    83.8586940275
_cell_angle_gamma    89.8814947585
_symmetry_space_group_name_H-M    'P 1'
loop_
_atom_site_label
_atom_site_type_symbol
_atom_site_fract_x
_atom_site_fract_y
_atom_site_fract_z
_atom_site_occupancy
H4   H   0.587521454004673   0.022197565477669   0.078988344995679   1.0
H5   H   0.331467671090110   0.283078715091612   0.993513131710635   1.0
H6   H   0.333685831607141   0.028101237123217   0.990074041246203   1.0
H7   H   0.396585524883633   0.022121130458927   0.508914048875305   1.0
H8   H   0.393084654895134   0.293207079734792   0.512754118742045   1.0
H9   H   0.664878352548953   0.297117611863420   0.578405958836115   1.0
H10   H   0.668731998178387   0.029163702512399   0.572482988534624   1.0
H11   H   0.584775706126699   0.294130055742514   0.084761868119614   1.0
C12   C   0.437315770408063   0.158279957280897   0.603491701064456   1.0
C13   C   0.559061760712950   0.158514063794911   0.970931960833539   1.0
C14   C   0.605475675583463   0.161332897487945   0.652290684232149   1.0
N16   N   0.391310019108651   0.156469981548625   0.920652326766017   1.0
