data_1
_audit_creation_method   'Generated by vasp2cif'
_cell_length_a    8.99209957408
_cell_length_b    6.59249574283
_cell_length_c    4.80750508235
_cell_angle_alpha    88.1200957688
_cell_angle_beta    100.705895406
_cell_angle_gamma    86.6874736755
_symmetry_space_group_name_H-M    'P 1'
loop_
_atom_site_label
_atom_site_type_symbol
_atom_site_fract_x
_atom_site_fract_y
_atom_site_fract_z
_atom_site_occupancy
H4   H   0.628922793171792   0.183099727890098   0.174061145387242   1.0
H5   H   0.317193809601682   0.107922891597273   0.894800560407116   1.0
H6   H   0.465553990375532   0.933599317075772   0.988070650777637   1.0
H7   H   0.522411519619530   0.964298644547147   0.535767836073674   1.0
H8   H   0.370223850362508   0.159456086146593   0.448956148785052   1.0
H9   H   0.554227725999529   0.419961985204232   0.607951662199348   1.0
H10   H   0.702025405412101   0.225111833633706   0.710586653644623   1.0
H11   H   0.473367931231533   0.372030855311783   0.070636394968682   1.0
C12   C   0.472490657321318   0.105912620314634   0.598849951845291   1.0
C13   C   0.538782691798924   0.244691220481658   0.004044539094195   1.0
C14   C   0.583345380932561   0.269388295442625   0.710105663250196   1.0
N16   N   0.431667060279877   0.075843626488725   0.894109474767303   1.0
