data_1
_audit_creation_method   'Generated by vasp2cif'
_cell_length_a    6.44452549896
_cell_length_b    4.64162776319
_cell_length_c    9.33550021336
_cell_angle_alpha    88.1657825308
_cell_angle_beta    93.4095572025
_cell_angle_gamma    96.1184560541
_symmetry_space_group_name_H-M    'P 1'
loop_
_atom_site_label
_atom_site_type_symbol
_atom_site_fract_x
_atom_site_fract_y
_atom_site_fract_z
_atom_site_occupancy
H4   H   0.037830890006589   0.230697383138420   0.547724351570191   1.0
H5   H   0.252884162737537   0.238339390874882   0.351194366560803   1.0
H6   H   0.356553434515667   0.570397113796701   0.387440947354179   1.0
H7   H   0.539149303344661   0.044204802287613   0.472748559042005   1.0
H8   H   0.632428288175815   0.397263759520398   0.533510039004522   1.0
H9   H   0.427501068667859   0.312076525928235   0.749263209035883   1.0
H10   H   0.309749434034768   0.975435498417756   0.685615041344387   1.0
H11   H   0.168244009275783   0.571883328242000   0.601734303319920   1.0
C12   C   0.496834793835631   0.236558027312749   0.523150802297887   1.0
C13   C   0.188899859762727   0.354843966989605   0.568653557107340   1.0
C14   C   0.359586918887172   0.199167160789798   0.654503022339697   1.0
N16   N   0.318271509884290   0.368987290145757   0.433281197889262   1.0
