data_1
_audit_creation_method   'Generated by vasp2cif'
_cell_length_a    9.19242472911
_cell_length_b    4.80176194137
_cell_length_c    6.76679739237
_cell_angle_alpha    101.630519561
_cell_angle_beta    88.4907655984
_cell_angle_gamma    77.2039526958
_symmetry_space_group_name_H-M    'P 1'
loop_
_atom_site_label
_atom_site_type_symbol
_atom_site_fract_x
_atom_site_fract_y
_atom_site_fract_z
_atom_site_occupancy
H4   H   0.420911268600534   0.569634207766043   0.328388942560899   1.0
H5   H   0.637195199628565   0.708400116651994   0.481481117494354   1.0
H6   H   0.652211516618600   0.909667385236453   0.311263279985582   1.0
H7   H   0.424828085998989   0.067601951316988   0.659299989501839   1.0
H8   H   0.495546594432277   0.311558536416733   0.537771502376913   1.0
H9   H   0.338163106259401   0.185461462082948   0.238313913492597   1.0
H10   H   0.235016836079552   0.045106060291595   0.405383397874836   1.0
H11   H   0.489353892011145   0.675520931791681   0.111002785416090   1.0
C12   C   0.455987583276098   0.110965039340918   0.514369486136324   1.0
C13   C   0.453372713430056   0.744038376729343   0.270964506751177   1.0
C14   C   0.346649608165571   0.047490502376007   0.349498941697895   1.0
N16   N   0.576486372600456   0.846619915786981   0.398871070553021   1.0
