data_1
_audit_creation_method   'Generated by vasp2cif'
_cell_length_a    9.05791935589
_cell_length_b    4.80856143544
_cell_length_c    6.6327605361
_cell_angle_alpha    90.0231656577
_cell_angle_beta    85.6000785247
_cell_angle_gamma    104.409194236
_symmetry_space_group_name_H-M    'P 1'
loop_
_atom_site_label
_atom_site_type_symbol
_atom_site_fract_x
_atom_site_fract_y
_atom_site_fract_z
_atom_site_occupancy
H4   H   0.660854966282338   0.688026054896957   0.618327618625664   1.0
H5   H   0.493671495509594   0.752276816259755   0.377526559020698   1.0
H6   H   0.345509196949042   0.695939169530504   0.555830739675848   1.0
H7   H   0.532821138036274   0.244422874816265   0.403837608747741   1.0
H8   H   0.391218327817938   0.188123990932802   0.615927182403655   1.0
H9   H   0.600396595276704   0.199911171249648   0.844748665139436   1.0
H10   H   0.734041530499155   0.214527624934242   0.631110733466425   1.0
H11   H   0.509569341045827   0.671992586931279   0.814884845547095   1.0
C12   C   0.493668083493137   0.133384995147107   0.548512578741929   1.0
C13   C   0.572246304604649   0.787092314255948   0.681053347104111   1.0
C14   C   0.617786093993290   0.118091963849221   0.694038494841584   1.0
N16   N   0.458777651370291   0.806144407790762   0.520764299464036   1.0
