data_1
_audit_creation_method   'Generated by vasp2cif'
_cell_length_a    6.44803584892
_cell_length_b    4.6149987466
_cell_length_c    9.35016001137
_cell_angle_alpha    88.8531034684
_cell_angle_beta    89.66460821
_cell_angle_gamma    85.0051796708
_symmetry_space_group_name_H-M    'P 1'
loop_
_atom_site_label
_atom_site_type_symbol
_atom_site_fract_x
_atom_site_fract_y
_atom_site_fract_z
_atom_site_occupancy
H4   H   0.266557748633410   0.991667169731464   0.500232709134544   1.0
H5   H   0.443904037326327   0.266693511750383   0.327427187707599   1.0
H6   H   0.312175637413503   0.570488749469661   0.378688889968899   1.0
H7   H   0.699511430380916   0.287262872398756   0.509775526546740   1.0
H8   H   0.589465713190833   0.647337366997668   0.543948059095939   1.0
H9   H   0.343887687808078   0.452956202999566   0.722674787460974   1.0
H10   H   0.484836942258937   0.106443549358247   0.709579794515733   1.0
H11   H   0.104601777374370   0.316473523361196   0.532422158266812   1.0
C12   C   0.556955731142402   0.421389404509732   0.534796728480210   1.0
C13   C   0.264452474547888   0.219446748931269   0.528175415457504   1.0
C14   C   0.413875705281683   0.292465322344704   0.648764252051002   1.0
N16   N   0.393492371448708   0.382433313193992   0.417116733125894   1.0
