data_1
_audit_creation_method   'Generated by vasp2cif'
_cell_length_a    4.70147126039
_cell_length_b    6.460871957
_cell_length_c    9.16505457381
_cell_angle_alpha    93.6109368171
_cell_angle_beta    90.4551451156
_cell_angle_gamma    95.6005493712
_symmetry_space_group_name_H-M    'P 1'
loop_
_atom_site_label
_atom_site_type_symbol
_atom_site_fract_x
_atom_site_fract_y
_atom_site_fract_z
_atom_site_occupancy
H4   H   0.923928630124955   0.987882612847322   0.200758643431712   1.0
H5   H   0.973888821658711   0.862170221930050   0.496431884406896   1.0
H6   H   0.683876426605515   0.811334796290538   0.387914711556611   1.0
H7   H   0.473188489285590   0.080409988839676   0.525236456573971   1.0
H8   H   0.817475186194621   0.180768603150263   0.593857229379871   1.0
H9   H   0.881370055390207   0.392190029193621   0.377532708456528   1.0
H10   H   0.590641141540864   0.245061741754675   0.282483823149100   1.0
H11   H   0.188223965778896   0.103808397547205   0.329682535839034   1.0
C12   C   0.695054461425023   0.120251262655685   0.496625343979566   1.0
C13   C   0.961181729940229   0.064848218230530   0.308740364641125   1.0
C14   C   0.769821567170624   0.237191008239982   0.357474092020617   1.0
N16   N   0.833623821141671   0.927995965872213   0.429918303706799   1.0
