data_1
_audit_creation_method   'Generated by vasp2cif'
_cell_length_a    8.70628852147
_cell_length_b    6.81574283748
_cell_length_c    4.83250833348
_cell_angle_alpha    88.3914088523
_cell_angle_beta    93.1958683336
_cell_angle_gamma    80.7365719946
_symmetry_space_group_name_H-M    'P 1'
loop_
_atom_site_label
_atom_site_type_symbol
_atom_site_fract_x
_atom_site_fract_y
_atom_site_fract_z
_atom_site_occupancy
H4   H   0.320599617482657   0.107099129879074   0.715284609907464   1.0
H5   H   0.509875144848962   0.415724054762080   0.818018716338429   1.0
H6   H   0.580657609314144   0.169968564963128   0.807983241642958   1.0
H7   H   0.603215876039009   0.150797203290899   0.290529805123469   1.0
H8   H   0.482486634325653   0.393420163583883   0.295817054937380   1.0
H9   H   0.249879790031777   0.221751940706298   0.293054301277635   1.0
H10   H   0.365976877229585   0.993605694954503   0.206294855065664   1.0
H11   H   0.248341592493091   0.357458650094472   0.811554345861254   1.0
C12   C   0.497343549062407   0.246632391785823   0.206381505040049   1.0
C13   C   0.329976214040727   0.221425842303986   0.864279700549005   1.0
C14   C   0.345522373082531   0.154756030813644   0.173564158663133   1.0
N16   N   0.497245830155009   0.274361290191251   0.888794301874448   1.0
