data_1
_audit_creation_method   'Generated by vasp2cif'
_cell_length_a    6.53439874411
_cell_length_b    6.70080199898
_cell_length_c    6.63220124588
_cell_angle_alpha    95.2337142556
_cell_angle_beta    82.9420258226
_cell_angle_gamma    85.4382951315
_symmetry_space_group_name_H-M    'P 1'
loop_
_atom_site_label
_atom_site_type_symbol
_atom_site_fract_x
_atom_site_fract_y
_atom_site_fract_z
_atom_site_occupancy
H4   H   0.428920480912434   0.036294930079363   0.344464926288589   1.0
H5   H   0.666344600350378   0.017649730704202   0.621357532267303   1.0
H6   H   0.762874747547876   0.553496392943265   0.340673422564137   1.0
H7   H   0.468706769138480   0.350582996687210   0.153909513002816   1.0
H8   H   0.864686639533606   0.329954924365508   0.614476941668843   1.0
C9   C   0.554058461112516   0.315079210476805   0.276657193137343   1.0
C10   C   0.653895081344007   0.133750627849161   0.520001079078655   1.0
C11   C   0.698201661314797   0.414403655256403   0.368153679872859   1.0
N13   N   0.529430397309283   0.141591307102989   0.373741640346902   1.0
N14   N   0.758026736388577   0.298562711617478   0.518155382431732   1.0
