data_1
_audit_creation_method   'Generated by vasp2cif'
_cell_length_a    6.68916243421
_cell_length_b    6.60486856507
_cell_length_c    6.57635170598
_cell_angle_alpha    83.2066023716
_cell_angle_beta    85.1502392824
_cell_angle_gamma    95.4976207321
_symmetry_space_group_name_H-M    'P 1'
loop_
_atom_site_label
_atom_site_type_symbol
_atom_site_fract_x
_atom_site_fract_y
_atom_site_fract_z
_atom_site_occupancy
H4   H   0.604513458163929   0.323702838778608   0.831773644113170   1.0
H5   H   0.636620984266251   0.047396476051496   0.594245941280121   1.0
H6   H   0.103670411514145   0.324902309744012   0.477089065477429   1.0
H7   H   0.291503252332660   0.512882907059094   0.779420974642711   1.0
H8   H   0.334815601059539   0.053162203075445   0.383122494070776   1.0
C9   C   0.331430170547669   0.390099532291046   0.695618124310450   1.0
C10   C   0.519221463098624   0.148011922907116   0.602751743365189   1.0
C11   C   0.239773350463771   0.298223208716308   0.547304569306469   1.0
N13   N   0.504230436342773   0.294001957203193   0.727097226164560   1.0
N14   N   0.359517493038432   0.148781003929997   0.492094392440606   1.0
