data_1
_audit_creation_method   'Generated by vasp2cif'
_cell_length_a    6.57511695862
_cell_length_b    6.56547225243
_cell_length_c    6.72686035599
_cell_angle_alpha    95.6340691636
_cell_angle_beta    95.3990760494
_cell_angle_gamma    96.2265066343
_symmetry_space_group_name_H-M    'P 1'
loop_
_atom_site_label
_atom_site_type_symbol
_atom_site_fract_x
_atom_site_fract_y
_atom_site_fract_z
_atom_site_occupancy
H4   H   0.205993071818483   0.443160340615457   0.632726685921874   1.0
H5   H   0.426199008447760   0.155471640778039   0.698690200013154   1.0
H6   H   0.592999898055872   0.393910355763005   0.164346395138416   1.0
H7   H   0.289194820535812   0.610696253840459   0.315791240279893   1.0
H8   H   0.656893042737202   0.130661767031519   0.415037516773154   1.0
C9   C   0.362849736824131   0.485134301723086   0.368741038361399   1.0
C10   C   0.429559718123485   0.248716614386844   0.575487595678382   1.0
C11   C   0.512001857791105   0.379079614634755   0.294868273837714   1.0
N13   N   0.314341568034216   0.401013594981357   0.542427190218703   1.0
N14   N   0.550602317463060   0.233184552726385   0.425997610800259   1.0
