data_1
_audit_creation_method   'Generated by vasp2cif'
_cell_length_a    6.5317557773
_cell_length_b    4.49792144141
_cell_length_c    9.70782816101
_cell_angle_alpha    87.3265386986
_cell_angle_beta    90.1237303312
_cell_angle_gamma    80.1593404944
_symmetry_space_group_name_H-M    'P 1'
loop_
_atom_site_label
_atom_site_type_symbol
_atom_site_fract_x
_atom_site_fract_y
_atom_site_fract_z
_atom_site_occupancy
H4   H   0.537989430366732   0.512997945081108   0.312872575200269   1.0
H5   H   0.237312801670992   0.256512166289476   0.656500070267298   1.0
H6   H   0.499053351868531   0.567396743924047   0.748288051720110   1.0
H7   H   0.708734619158375   0.735164249983028   0.515229840567718   1.0
H8   H   0.257896027289512   0.216018658520553   0.395067175635023   1.0
C9   C   0.482363794073183   0.523878194609982   0.641034807923947   1.0
C10   C   0.584511395380756   0.606996882200100   0.526713826023381   1.0
C11   C   0.351593235223417   0.332624744071317   0.458362178402655   1.0
N13   N   0.339007890415209   0.353198885180078   0.595929655091712   1.0
N14   N   0.500750500249518   0.484995600373070   0.414833170719660   1.0
