data_1
_audit_creation_method   'Generated by vasp2cif'
_cell_length_a    6.65455464619
_cell_length_b    4.59210456325
_cell_length_c    9.99477622505
_cell_angle_alpha    113.141791813
_cell_angle_beta    97.5970888622
_cell_angle_gamma    80.0381700748
_symmetry_space_group_name_H-M    'P 1'
loop_
_atom_site_label
_atom_site_type_symbol
_atom_site_fract_x
_atom_site_fract_y
_atom_site_fract_z
_atom_site_occupancy
H4   H   0.569376200277652   0.170961230969013   0.279450112045126   1.0
H5   H   0.282675705963022   0.417819893558246   0.652929010921738   1.0
H6   H   0.530282450366705   0.831849193295355   0.717957082289217   1.0
H7   H   0.732786833482784   0.658308368116600   0.464902062867083   1.0
H8   H   0.301496058037884   0.018519510294020   0.389800241498442   1.0
C9   C   0.515058997481880   0.642713020579016   0.612537079620182   1.0
C10   C   0.613512919245856   0.558306624182173   0.488467548387454   1.0
C11   C   0.391791030552710   0.211835692801522   0.444401228146695   1.0
N13   N   0.379243255250408   0.422874545596677   0.582541407479106   1.0
N14   N   0.534738711058736   0.289589020235830   0.385941907630475   1.0
